# generated using pymatgen
data_Fe3Co3H130C84(N3O13)2
_symmetry_space_group_name_H-M   'P 1'
_cell_length_a   25.58450000
_cell_length_b   24.55970000
_cell_length_c   19.05180000
_cell_angle_alpha   90.00000000
_cell_angle_beta   105.29100000
_cell_angle_gamma   90.00000000
_symmetry_Int_Tables_number   1
_chemical_formula_structural   Fe3Co3H130C84(N3O13)2
_chemical_formula_sum   'Fe12 Co12 H520 C336 N24 O104'
_cell_volume   11547.36111759
_cell_formula_units_Z   4
loop_
 _symmetry_equiv_pos_site_id
 _symmetry_equiv_pos_as_xyz
  1  'x, y, z'
loop_
 _atom_site_type_symbol
 _atom_site_label
 _atom_site_symmetry_multiplicity
 _atom_site_fract_x
 _atom_site_fract_y
 _atom_site_fract_z
 _atom_site_occupancy
 _atom_site_charge
  Fe  Fe1  1  0.134590  0.371080  0.728860  1.0  0.7913
  Fe  Fe2  1  0.261590  0.405160  0.784710  1.0  0.9121
  Fe  Fe3  1  0.219880  0.327340  0.641720  1.0  0.9573
  Fe  Fe4  1  0.634590  0.871080  0.728860  1.0  0.7913
  Fe  Fe5  1  0.761590  0.905160  0.784710  1.0  0.9121
  Fe  Fe6  1  0.719880  0.827340  0.641720  1.0  0.9573
  Fe  Fe7  1  0.865410  0.628920  0.271140  1.0  0.795
  Fe  Fe8  1  0.738410  0.594840  0.215290  1.0  0.9102
  Fe  Fe9  1  0.780120  0.672660  0.358280  1.0  0.9579
  Fe  Fe10  1  0.365410  0.128920  0.271140  1.0  0.795
  Fe  Fe11  1  0.238410  0.094840  0.215290  1.0  0.9102
  Fe  Fe12  1  0.280120  0.172660  0.358280  1.0  0.9579
  Co  Co13  1  0.865410  0.371080  0.771140  1.0  0.9381
  Co  Co14  1  0.738410  0.405160  0.715290  1.0  0.9508
  Co  Co15  1  0.780120  0.327340  0.858280  1.0  1.0042
  Co  Co16  1  0.365410  0.871080  0.771140  1.0  0.9381
  Co  Co17  1  0.238410  0.905160  0.715290  1.0  0.9508
  Co  Co18  1  0.280120  0.827340  0.858280  1.0  1.0042
  Co  Co19  1  0.134590  0.628920  0.228860  1.0  0.9341
  Co  Co20  1  0.261590  0.594840  0.284710  1.0  0.9519
  Co  Co21  1  0.219880  0.672660  0.141720  1.0  1.004
  Co  Co22  1  0.634590  0.128920  0.228860  1.0  0.9341
  Co  Co23  1  0.761590  0.094840  0.284710  1.0  0.9519
  Co  Co24  1  0.719880  0.172660  0.141720  1.0  1.004
  H  H25  1  0.024100  0.445900  0.683900  1.0  0.075
  H  H26  1  0.063800  0.310500  0.813000  1.0  0.0944
  H  H27  1  0.940100  0.440100  0.698600  1.0  0.0792
  H  H28  1  0.976000  0.320000  0.837400  1.0  0.0975
  H  H29  1  0.346300  0.387000  0.931100  1.0  0.0861
  H  H30  1  0.256200  0.211500  0.610500  1.0  0.095
  H  H31  1  0.429400  0.420700  0.999600  1.0  0.1255
  H  H32  1  0.485600  0.551200  0.973000  1.0  0.0943
  H  H33  1  0.222500  0.338500  0.480700  1.0  0.1016
  H  H34  1  0.403900  0.554500  0.871500  1.0  0.1129
  H  H35  1  0.323100  0.516500  0.806200  1.0  0.0814
  H  H36  1  0.421500  0.336100  0.761100  1.0  0.1318
  H  H37  1  0.457700  0.292500  0.815100  1.0  0.12
  H  H38  1  0.422200  0.335700  0.845300  1.0  0.1264
  H  H39  1  0.227700  0.572600  0.828600  1.0  0.1096
  H  H40  1  0.178700  0.562900  0.864900  1.0  0.1144
  H  H41  1  0.180100  0.616600  0.817900  1.0  0.1052
  H  H42  1  0.054800  0.376700  0.384800  1.0  0.1153
  H  H43  1  0.065100  0.322300  0.432700  1.0  0.1206
  H  H44  1  0.115000  0.360600  0.429300  1.0  0.1148
  H  H45  1  0.355700  0.512900  0.686100  1.0  0.1115
  H  H46  1  0.301500  0.535900  0.631600  1.0  0.1102
  H  H47  1  0.357300  0.536700  0.608500  1.0  0.1135
  H  H48  1  0.350400  0.210900  0.838600  1.0  0.0966
  H  H49  1  0.358300  0.266700  0.883600  1.0  0.1005
  H  H50  1  0.410100  0.231800  0.878700  1.0  0.0882
  H  H51  1  0.087200  0.543300  0.787600  1.0  0.1124
  H  H52  1  0.076600  0.538500  0.701300  1.0  0.1133
  H  H53  1  0.089600  0.596500  0.740100  1.0  0.1112
  H  H54  1  0.126000  0.408200  0.935500  1.0  0.0973
  H  H55  1  0.177100  0.437800  0.988600  1.0  0.102
  H  H56  1  0.142800  0.394400  0.020600  1.0  0.107
  H  H57  1  0.394400  0.426200  0.661400  1.0  0.1167
  H  H58  1  0.398900  0.450600  0.585300  1.0  0.1176
  H  H59  1  0.368200  0.394100  0.587400  1.0  0.1132
  H  H60  1  0.271900  0.336700  0.012200  1.0  0.0961
  H  H61  1  0.240500  0.360400  0.067900  1.0  0.0891
  H  H62  1  0.260100  0.400600  0.013900  1.0  0.098
  H  H63  1  0.059800  0.211600  0.709600  1.0  0.1011
  H  H64  1  0.072500  0.148200  0.723600  1.0  0.1036
  H  H65  1  0.072600  0.174700  0.646900  1.0  0.1182
  H  H66  1  0.109100  0.208400  0.815800  1.0  0.099
  H  H67  1  0.172800  0.219800  0.833600  1.0  0.1139
  H  H68  1  0.150900  0.158600  0.829500  1.0  0.1039
  H  H69  1  0.312700  0.492800  0.500800  1.0  0.1028
  H  H70  1  0.257000  0.475400  0.517800  1.0  0.1124
  H  H71  1  0.296100  0.429900  0.499600  1.0  0.1073
  H  H72  1  0.383300  0.256100  0.683200  1.0  0.1122
  H  H73  1  0.357800  0.206400  0.717200  1.0  0.1227
  H  H74  1  0.421400  0.218400  0.744300  1.0  0.1091
  H  H75  1  0.215800  0.564200  0.700000  1.0  0.1129
  H  H76  1  0.168400  0.608600  0.684000  1.0  0.105
  H  H77  1  0.158100  0.550100  0.645900  1.0  0.1237
  H  H78  1  0.073200  0.474600  0.517400  1.0  0.1093
  H  H79  1  0.071300  0.462500  0.434200  1.0  0.1054
  H  H80  1  0.126300  0.453300  0.496500  1.0  0.1161
  H  H81  1  0.009500  0.409100  0.542800  1.0  0.1099
  H  H82  1  0.001700  0.351200  0.502700  1.0  0.1148
  H  H83  1  0.988400  0.406100  0.456000  1.0  0.1114
  H  H84  1  0.212500  0.158800  0.731500  1.0  0.1096
  H  H85  1  0.169500  0.153100  0.653800  1.0  0.0996
  H  H86  1  0.164000  0.115800  0.720400  1.0  0.0911
  H  H87  1  0.137500  0.303500  0.920100  1.0  0.0895
  H  H88  1  0.148500  0.307400  0.006700  1.0  0.0929
  H  H89  1  0.191200  0.277400  0.971900  1.0  0.1067
  H  H90  1  0.524100  0.945900  0.683900  1.0  0.075
  H  H91  1  0.563800  0.810500  0.813000  1.0  0.0944
  H  H92  1  0.440100  0.940100  0.698600  1.0  0.0792
  H  H93  1  0.476000  0.820000  0.837400  1.0  0.0975
  H  H94  1  0.846300  0.887000  0.931100  1.0  0.0861
  H  H95  1  0.756200  0.711500  0.610500  1.0  0.095
  H  H96  1  0.929400  0.920700  0.999600  1.0  0.1255
  H  H97  1  0.985600  0.051200  0.973000  1.0  0.0943
  H  H98  1  0.722500  0.838500  0.480700  1.0  0.1016
  H  H99  1  0.903900  0.054500  0.871500  1.0  0.1129
  H  H100  1  0.823100  0.016500  0.806200  1.0  0.0814
  H  H101  1  0.921500  0.836100  0.761100  1.0  0.1318
  H  H102  1  0.957700  0.792500  0.815100  1.0  0.12
  H  H103  1  0.922200  0.835700  0.845300  1.0  0.1264
  H  H104  1  0.727700  0.072600  0.828600  1.0  0.1096
  H  H105  1  0.678700  0.062900  0.864900  1.0  0.1144
  H  H106  1  0.680100  0.116600  0.817900  1.0  0.1052
  H  H107  1  0.554800  0.876700  0.384800  1.0  0.1153
  H  H108  1  0.565100  0.822300  0.432700  1.0  0.1206
  H  H109  1  0.615000  0.860600  0.429300  1.0  0.1148
  H  H110  1  0.855700  0.012900  0.686100  1.0  0.1115
  H  H111  1  0.801500  0.035900  0.631600  1.0  0.1102
  H  H112  1  0.857300  0.036700  0.608500  1.0  0.1135
  H  H113  1  0.850400  0.710900  0.838600  1.0  0.0966
  H  H114  1  0.858300  0.766700  0.883600  1.0  0.1005
  H  H115  1  0.910100  0.731800  0.878700  1.0  0.0882
  H  H116  1  0.587200  0.043300  0.787600  1.0  0.1124
  H  H117  1  0.576600  0.038500  0.701300  1.0  0.1133
  H  H118  1  0.589600  0.096500  0.740100  1.0  0.1112
  H  H119  1  0.626000  0.908200  0.935500  1.0  0.0973
  H  H120  1  0.677100  0.937800  0.988600  1.0  0.102
  H  H121  1  0.642800  0.894400  0.020600  1.0  0.107
  H  H122  1  0.894400  0.926200  0.661400  1.0  0.1167
  H  H123  1  0.898900  0.950600  0.585300  1.0  0.1176
  H  H124  1  0.868200  0.894100  0.587400  1.0  0.1132
  H  H125  1  0.771900  0.836700  0.012200  1.0  0.0961
  H  H126  1  0.740500  0.860400  0.067900  1.0  0.0891
  H  H127  1  0.760100  0.900600  0.013900  1.0  0.098
  H  H128  1  0.559800  0.711600  0.709600  1.0  0.1011
  H  H129  1  0.572500  0.648200  0.723600  1.0  0.1036
  H  H130  1  0.572600  0.674700  0.646900  1.0  0.1182
  H  H131  1  0.609100  0.708400  0.815800  1.0  0.099
  H  H132  1  0.672800  0.719800  0.833600  1.0  0.1139
  H  H133  1  0.650900  0.658600  0.829500  1.0  0.1039
  H  H134  1  0.812700  0.992800  0.500800  1.0  0.1028
  H  H135  1  0.757000  0.975400  0.517800  1.0  0.1124
  H  H136  1  0.796100  0.929900  0.499600  1.0  0.1073
  H  H137  1  0.883300  0.756100  0.683200  1.0  0.1122
  H  H138  1  0.857800  0.706400  0.717200  1.0  0.1227
  H  H139  1  0.921400  0.718400  0.744300  1.0  0.1091
  H  H140  1  0.715800  0.064200  0.700000  1.0  0.1129
  H  H141  1  0.668400  0.108600  0.684000  1.0  0.105
  H  H142  1  0.658100  0.050100  0.645900  1.0  0.1237
  H  H143  1  0.573200  0.974600  0.517400  1.0  0.1093
  H  H144  1  0.571300  0.962500  0.434200  1.0  0.1054
  H  H145  1  0.626300  0.953300  0.496500  1.0  0.1161
  H  H146  1  0.509500  0.909100  0.542800  1.0  0.1099
  H  H147  1  0.501700  0.851200  0.502700  1.0  0.1148
  H  H148  1  0.488400  0.906100  0.456000  1.0  0.1114
  H  H149  1  0.712500  0.658800  0.731500  1.0  0.1096
  H  H150  1  0.669500  0.653100  0.653800  1.0  0.0996
  H  H151  1  0.664000  0.615800  0.720400  1.0  0.0911
  H  H152  1  0.637500  0.803500  0.920100  1.0  0.0895
  H  H153  1  0.648500  0.807400  0.006700  1.0  0.0929
  H  H154  1  0.691200  0.777400  0.971900  1.0  0.1067
  H  H155  1  0.975900  0.445900  0.816100  1.0  0.0733
  H  H156  1  0.936200  0.310500  0.687000  1.0  0.0934
  H  H157  1  0.059900  0.440100  0.801400  1.0  0.0779
  H  H158  1  0.024000  0.320000  0.662600  1.0  0.0991
  H  H159  1  0.653700  0.387000  0.568900  1.0  0.0857
  H  H160  1  0.743800  0.211500  0.889500  1.0  0.0942
  H  H161  1  0.570600  0.420700  0.500400  1.0  0.1253
  H  H162  1  0.514400  0.551200  0.527000  1.0  0.0943
  H  H163  1  0.777500  0.338500  0.019300  1.0  0.1016
  H  H164  1  0.596100  0.554500  0.628500  1.0  0.1123
  H  H165  1  0.676900  0.516500  0.693800  1.0  0.0811
  H  H166  1  0.578500  0.336100  0.738900  1.0  0.1337
  H  H167  1  0.542300  0.292500  0.684900  1.0  0.1181
  H  H168  1  0.577800  0.335700  0.654700  1.0  0.1267
  H  H169  1  0.772300  0.572600  0.671400  1.0  0.1104
  H  H170  1  0.821300  0.562900  0.635100  1.0  0.1149
  H  H171  1  0.819900  0.616600  0.682100  1.0  0.1047
  H  H172  1  0.945200  0.376700  0.115200  1.0  0.1151
  H  H173  1  0.934900  0.322300  0.067300  1.0  0.1208
  H  H174  1  0.885000  0.360600  0.070700  1.0  0.112
  H  H175  1  0.644300  0.512900  0.813900  1.0  0.1107
  H  H176  1  0.698500  0.535900  0.868400  1.0  0.1119
  H  H177  1  0.642700  0.536700  0.891500  1.0  0.1119
  H  H178  1  0.649600  0.210900  0.661400  1.0  0.0973
  H  H179  1  0.641700  0.266700  0.616400  1.0  0.0998
  H  H180  1  0.589900  0.231800  0.621300  1.0  0.0862
  H  H181  1  0.912800  0.543300  0.712400  1.0  0.1128
  H  H182  1  0.923400  0.538500  0.798700  1.0  0.114
  H  H183  1  0.910400  0.596500  0.759900  1.0  0.1105
  H  H184  1  0.874000  0.408200  0.564500  1.0  0.0984
  H  H185  1  0.822900  0.437800  0.511400  1.0  0.1023
  H  H186  1  0.857200  0.394400  0.479400  1.0  0.1083
  H  H187  1  0.605600  0.426200  0.838600  1.0  0.117
  H  H188  1  0.601100  0.450600  0.914700  1.0  0.1175
  H  H189  1  0.631800  0.394100  0.912600  1.0  0.111
  H  H190  1  0.728100  0.336700  0.487800  1.0  0.0961
  H  H191  1  0.759500  0.360400  0.432100  1.0  0.0884
  H  H192  1  0.739900  0.400600  0.486100  1.0  0.0993
  H  H193  1  0.940200  0.211600  0.790400  1.0  0.1037
  H  H194  1  0.927500  0.148200  0.776400  1.0  0.1051
  H  H195  1  0.927400  0.174700  0.853100  1.0  0.1188
  H  H196  1  0.890900  0.208400  0.684200  1.0  0.0989
  H  H197  1  0.827200  0.219800  0.666400  1.0  0.1131
  H  H198  1  0.849100  0.158600  0.670500  1.0  0.1038
  H  H199  1  0.687300  0.492800  0.999200  1.0  0.1026
  H  H200  1  0.743000  0.475400  0.982200  1.0  0.1144
  H  H201  1  0.703900  0.429900  0.000400  1.0  0.1079
  H  H202  1  0.616700  0.256100  0.816800  1.0  0.1111
  H  H203  1  0.642200  0.206400  0.782800  1.0  0.1223
  H  H204  1  0.578600  0.218400  0.755700  1.0  0.1079
  H  H205  1  0.784200  0.564200  0.800000  1.0  0.1098
  H  H206  1  0.831600  0.608600  0.816000  1.0  0.1047
  H  H207  1  0.841900  0.550100  0.854100  1.0  0.1269
  H  H208  1  0.926800  0.474600  0.982600  1.0  0.1097
  H  H209  1  0.928700  0.462500  0.065800  1.0  0.1058
  H  H210  1  0.873700  0.453300  0.003500  1.0  0.1161
  H  H211  1  0.990500  0.409100  0.957200  1.0  0.1106
  H  H212  1  0.998300  0.351200  0.997300  1.0  0.116
  H  H213  1  0.011600  0.406100  0.044000  1.0  0.1129
  H  H214  1  0.787500  0.158800  0.768500  1.0  0.1071
  H  H215  1  0.830500  0.153100  0.846200  1.0  0.0983
  H  H216  1  0.836000  0.115800  0.779600  1.0  0.0915
  H  H217  1  0.862500  0.303500  0.579900  1.0  0.0891
  H  H218  1  0.851500  0.307400  0.493300  1.0  0.0928
  H  H219  1  0.808800  0.277400  0.528100  1.0  0.1078
  H  H220  1  0.475900  0.945900  0.816100  1.0  0.0733
  H  H221  1  0.436200  0.810500  0.687000  1.0  0.0934
  H  H222  1  0.559900  0.940100  0.801400  1.0  0.0779
  H  H223  1  0.524000  0.820000  0.662600  1.0  0.0991
  H  H224  1  0.153700  0.887000  0.568900  1.0  0.0857
  H  H225  1  0.243800  0.711500  0.889500  1.0  0.0942
  H  H226  1  0.070600  0.920700  0.500400  1.0  0.1253
  H  H227  1  0.014400  0.051200  0.527000  1.0  0.0943
  H  H228  1  0.277500  0.838500  0.019300  1.0  0.1016
  H  H229  1  0.096100  0.054500  0.628500  1.0  0.1123
  H  H230  1  0.176900  0.016500  0.693800  1.0  0.0811
  H  H231  1  0.078500  0.836100  0.738900  1.0  0.1337
  H  H232  1  0.042300  0.792500  0.684900  1.0  0.1181
  H  H233  1  0.077800  0.835700  0.654700  1.0  0.1267
  H  H234  1  0.272300  0.072600  0.671400  1.0  0.1104
  H  H235  1  0.321300  0.062900  0.635100  1.0  0.1149
  H  H236  1  0.319900  0.116600  0.682100  1.0  0.1047
  H  H237  1  0.445200  0.876700  0.115200  1.0  0.1151
  H  H238  1  0.434900  0.822300  0.067300  1.0  0.1208
  H  H239  1  0.385000  0.860600  0.070700  1.0  0.112
  H  H240  1  0.144300  0.012900  0.813900  1.0  0.1107
  H  H241  1  0.198500  0.035900  0.868400  1.0  0.1119
  H  H242  1  0.142700  0.036700  0.891500  1.0  0.1119
  H  H243  1  0.149600  0.710900  0.661400  1.0  0.0973
  H  H244  1  0.141700  0.766700  0.616400  1.0  0.0998
  H  H245  1  0.089900  0.731800  0.621300  1.0  0.0862
  H  H246  1  0.412800  0.043300  0.712400  1.0  0.1128
  H  H247  1  0.423400  0.038500  0.798700  1.0  0.114
  H  H248  1  0.410400  0.096500  0.759900  1.0  0.1105
  H  H249  1  0.374000  0.908200  0.564500  1.0  0.0984
  H  H250  1  0.322900  0.937800  0.511400  1.0  0.1023
  H  H251  1  0.357200  0.894400  0.479400  1.0  0.1083
  H  H252  1  0.105600  0.926200  0.838600  1.0  0.117
  H  H253  1  0.101100  0.950600  0.914700  1.0  0.1175
  H  H254  1  0.131800  0.894100  0.912600  1.0  0.111
  H  H255  1  0.228100  0.836700  0.487800  1.0  0.0961
  H  H256  1  0.259500  0.860400  0.432100  1.0  0.0884
  H  H257  1  0.239900  0.900600  0.486100  1.0  0.0993
  H  H258  1  0.440200  0.711600  0.790400  1.0  0.1037
  H  H259  1  0.427500  0.648200  0.776400  1.0  0.1051
  H  H260  1  0.427400  0.674700  0.853100  1.0  0.1188
  H  H261  1  0.390900  0.708400  0.684200  1.0  0.0989
  H  H262  1  0.327200  0.719800  0.666400  1.0  0.1131
  H  H263  1  0.349100  0.658600  0.670500  1.0  0.1038
  H  H264  1  0.187300  0.992800  0.999200  1.0  0.1026
  H  H265  1  0.243000  0.975400  0.982200  1.0  0.1144
  H  H266  1  0.203900  0.929900  0.000400  1.0  0.1079
  H  H267  1  0.116700  0.756100  0.816800  1.0  0.1111
  H  H268  1  0.142200  0.706400  0.782800  1.0  0.1223
  H  H269  1  0.078600  0.718400  0.755700  1.0  0.1079
  H  H270  1  0.284200  0.064200  0.800000  1.0  0.1098
  H  H271  1  0.331600  0.108600  0.816000  1.0  0.1047
  H  H272  1  0.341900  0.050100  0.854100  1.0  0.1269
  H  H273  1  0.426800  0.974600  0.982600  1.0  0.1097
  H  H274  1  0.428700  0.962500  0.065800  1.0  0.1058
  H  H275  1  0.373700  0.953300  0.003500  1.0  0.1161
  H  H276  1  0.490500  0.909100  0.957200  1.0  0.1106
  H  H277  1  0.498300  0.851200  0.997300  1.0  0.116
  H  H278  1  0.511600  0.906100  0.044000  1.0  0.1129
  H  H279  1  0.287500  0.658800  0.768500  1.0  0.1071
  H  H280  1  0.330500  0.653100  0.846200  1.0  0.0983
  H  H281  1  0.336000  0.615800  0.779600  1.0  0.0915
  H  H282  1  0.362500  0.803500  0.579900  1.0  0.0891
  H  H283  1  0.351500  0.807400  0.493300  1.0  0.0928
  H  H284  1  0.308800  0.777400  0.528100  1.0  0.1078
  H  H285  1  0.975900  0.554100  0.316100  1.0  0.0748
  H  H286  1  0.936200  0.689500  0.187000  1.0  0.0949
  H  H287  1  0.059900  0.559900  0.301400  1.0  0.0784
  H  H288  1  0.024000  0.680000  0.162600  1.0  0.0974
  H  H289  1  0.653700  0.613000  0.068900  1.0  0.0862
  H  H290  1  0.743800  0.788500  0.389500  1.0  0.0939
  H  H291  1  0.570600  0.579300  0.000400  1.0  0.1257
  H  H292  1  0.514400  0.448800  0.027000  1.0  0.0951
  H  H293  1  0.777500  0.661500  0.519300  1.0  0.1014
  H  H294  1  0.596100  0.445500  0.128500  1.0  0.113
  H  H295  1  0.676900  0.483500  0.193800  1.0  0.081
  H  H296  1  0.578500  0.663900  0.238900  1.0  0.1336
  H  H297  1  0.542300  0.707500  0.184900  1.0  0.1178
  H  H298  1  0.577800  0.664300  0.154700  1.0  0.1259
  H  H299  1  0.772300  0.427400  0.171400  1.0  0.1101
  H  H300  1  0.821300  0.437100  0.135100  1.0  0.1148
  H  H301  1  0.819900  0.383400  0.182100  1.0  0.1017
  H  H302  1  0.945200  0.623300  0.615200  1.0  0.1149
  H  H303  1  0.934900  0.677700  0.567300  1.0  0.1223
  H  H304  1  0.885000  0.639400  0.570700  1.0  0.1122
  H  H305  1  0.644300  0.487100  0.313900  1.0  0.1108
  H  H306  1  0.698500  0.464100  0.368400  1.0  0.1118
  H  H307  1  0.642700  0.463300  0.391500  1.0  0.1117
  H  H308  1  0.649600  0.789100  0.161400  1.0  0.0973
  H  H309  1  0.641700  0.733300  0.116400  1.0  0.1003
  H  H310  1  0.589900  0.768200  0.121300  1.0  0.0868
  H  H311  1  0.912800  0.456700  0.212400  1.0  0.1128
  H  H312  1  0.923400  0.461500  0.298700  1.0  0.1144
  H  H313  1  0.910400  0.403500  0.259900  1.0  0.1103
  H  H314  1  0.874000  0.591800  0.064500  1.0  0.0984
  H  H315  1  0.822900  0.562200  0.011400  1.0  0.1023
  H  H316  1  0.857200  0.605600  0.979400  1.0  0.1081
  H  H317  1  0.605600  0.573800  0.338600  1.0  0.1172
  H  H318  1  0.601100  0.549400  0.414700  1.0  0.1178
  H  H319  1  0.631800  0.605900  0.412600  1.0  0.1119
  H  H320  1  0.728100  0.663300  0.987800  1.0  0.0965
  H  H321  1  0.759500  0.639600  0.932100  1.0  0.0883
  H  H322  1  0.739900  0.599400  0.986100  1.0  0.098
  H  H323  1  0.940200  0.788400  0.290400  1.0  0.1047
  H  H324  1  0.927500  0.851800  0.276400  1.0  0.1049
  H  H325  1  0.927400  0.825300  0.353100  1.0  0.1191
  H  H326  1  0.890900  0.791600  0.184200  1.0  0.0989
  H  H327  1  0.827200  0.780200  0.166400  1.0  0.1126
  H  H328  1  0.849100  0.841400  0.170500  1.0  0.1042
  H  H329  1  0.687300  0.507200  0.499200  1.0  0.1033
  H  H330  1  0.743000  0.524600  0.482200  1.0  0.1143
  H  H331  1  0.703900  0.570100  0.500400  1.0  0.1077
  H  H332  1  0.616700  0.743900  0.316800  1.0  0.1114
  H  H333  1  0.642200  0.793600  0.282800  1.0  0.1226
  H  H334  1  0.578600  0.781600  0.255700  1.0  0.1079
  H  H335  1  0.784200  0.435800  0.300000  1.0  0.1099
  H  H336  1  0.831600  0.391400  0.316000  1.0  0.1036
  H  H337  1  0.841900  0.449900  0.354100  1.0  0.1259
  H  H338  1  0.926800  0.525400  0.482600  1.0  0.1093
  H  H339  1  0.928700  0.537500  0.565800  1.0  0.1057
  H  H340  1  0.873700  0.546700  0.503500  1.0  0.1157
  H  H341  1  0.990500  0.590900  0.457200  1.0  0.1106
  H  H342  1  0.998300  0.648800  0.497300  1.0  0.117
  H  H343  1  0.011600  0.593900  0.544000  1.0  0.1129
  H  H344  1  0.787500  0.841200  0.268500  1.0  0.107
  H  H345  1  0.830500  0.846900  0.346200  1.0  0.0983
  H  H346  1  0.836000  0.884200  0.279600  1.0  0.0931
  H  H347  1  0.862500  0.696500  0.079900  1.0  0.0886
  H  H348  1  0.851500  0.692600  0.993300  1.0  0.0925
  H  H349  1  0.808800  0.722600  0.028100  1.0  0.1092
  H  H350  1  0.475900  0.054100  0.316100  1.0  0.0748
  H  H351  1  0.436200  0.189500  0.187000  1.0  0.0949
  H  H352  1  0.559900  0.059900  0.301400  1.0  0.0784
  H  H353  1  0.524000  0.180000  0.162600  1.0  0.0974
  H  H354  1  0.153700  0.113000  0.068900  1.0  0.0862
  H  H355  1  0.243800  0.288500  0.389500  1.0  0.0939
  H  H356  1  0.070600  0.079300  0.000400  1.0  0.1257
  H  H357  1  0.014400  0.948800  0.027000  1.0  0.0951
  H  H358  1  0.277500  0.161500  0.519300  1.0  0.1014
  H  H359  1  0.096100  0.945500  0.128500  1.0  0.113
  H  H360  1  0.176900  0.983500  0.193800  1.0  0.081
  H  H361  1  0.078500  0.163900  0.238900  1.0  0.1336
  H  H362  1  0.042300  0.207500  0.184900  1.0  0.1178
  H  H363  1  0.077800  0.164300  0.154700  1.0  0.1259
  H  H364  1  0.272300  0.927400  0.171400  1.0  0.1101
  H  H365  1  0.321300  0.937100  0.135100  1.0  0.1148
  H  H366  1  0.319900  0.883400  0.182100  1.0  0.1017
  H  H367  1  0.445200  0.123300  0.615200  1.0  0.1149
  H  H368  1  0.434900  0.177700  0.567300  1.0  0.1223
  H  H369  1  0.385000  0.139400  0.570700  1.0  0.1122
  H  H370  1  0.144300  0.987100  0.313900  1.0  0.1108
  H  H371  1  0.198500  0.964100  0.368400  1.0  0.1118
  H  H372  1  0.142700  0.963300  0.391500  1.0  0.1117
  H  H373  1  0.149600  0.289100  0.161400  1.0  0.0973
  H  H374  1  0.141700  0.233300  0.116400  1.0  0.1003
  H  H375  1  0.089900  0.268200  0.121300  1.0  0.0868
  H  H376  1  0.412800  0.956700  0.212400  1.0  0.1128
  H  H377  1  0.423400  0.961500  0.298700  1.0  0.1144
  H  H378  1  0.410400  0.903500  0.259900  1.0  0.1103
  H  H379  1  0.374000  0.091800  0.064500  1.0  0.0984
  H  H380  1  0.322900  0.062200  0.011400  1.0  0.1023
  H  H381  1  0.357200  0.105600  0.979400  1.0  0.1081
  H  H382  1  0.105600  0.073800  0.338600  1.0  0.1172
  H  H383  1  0.101100  0.049400  0.414700  1.0  0.1178
  H  H384  1  0.131800  0.105900  0.412600  1.0  0.1119
  H  H385  1  0.228100  0.163300  0.987800  1.0  0.0965
  H  H386  1  0.259500  0.139600  0.932100  1.0  0.0883
  H  H387  1  0.239900  0.099400  0.986100  1.0  0.098
  H  H388  1  0.440200  0.288400  0.290400  1.0  0.1047
  H  H389  1  0.427500  0.351800  0.276400  1.0  0.1049
  H  H390  1  0.427400  0.325300  0.353100  1.0  0.1191
  H  H391  1  0.390900  0.291600  0.184200  1.0  0.0989
  H  H392  1  0.327200  0.280200  0.166400  1.0  0.1126
  H  H393  1  0.349100  0.341400  0.170500  1.0  0.1042
  H  H394  1  0.187300  0.007200  0.499200  1.0  0.1033
  H  H395  1  0.243000  0.024600  0.482200  1.0  0.1143
  H  H396  1  0.203900  0.070100  0.500400  1.0  0.1077
  H  H397  1  0.116700  0.243900  0.316800  1.0  0.1114
  H  H398  1  0.142200  0.293600  0.282800  1.0  0.1226
  H  H399  1  0.078600  0.281600  0.255700  1.0  0.1079
  H  H400  1  0.284200  0.935800  0.300000  1.0  0.1099
  H  H401  1  0.331600  0.891400  0.316000  1.0  0.1036
  H  H402  1  0.341900  0.949900  0.354100  1.0  0.1259
  H  H403  1  0.426800  0.025400  0.482600  1.0  0.1093
  H  H404  1  0.428700  0.037500  0.565800  1.0  0.1057
  H  H405  1  0.373700  0.046700  0.503500  1.0  0.1157
  H  H406  1  0.490500  0.090900  0.457200  1.0  0.1106
  H  H407  1  0.498300  0.148800  0.497300  1.0  0.117
  H  H408  1  0.511600  0.093900  0.544000  1.0  0.1129
  H  H409  1  0.287500  0.341200  0.268500  1.0  0.107
  H  H410  1  0.330500  0.346900  0.346200  1.0  0.0983
  H  H411  1  0.336000  0.384200  0.279600  1.0  0.0931
  H  H412  1  0.362500  0.196500  0.079900  1.0  0.0886
  H  H413  1  0.351500  0.192600  0.993300  1.0  0.0925
  H  H414  1  0.308800  0.222600  0.028100  1.0  0.1092
  H  H415  1  0.024100  0.554100  0.183900  1.0  0.0751
  H  H416  1  0.063800  0.689500  0.313000  1.0  0.0935
  H  H417  1  0.940100  0.559900  0.198600  1.0  0.0779
  H  H418  1  0.976000  0.680000  0.337400  1.0  0.0972
  H  H419  1  0.346300  0.613000  0.431100  1.0  0.0866
  H  H420  1  0.256200  0.788500  0.110500  1.0  0.0943
  H  H421  1  0.429400  0.579300  0.499600  1.0  0.1256
  H  H422  1  0.485600  0.448800  0.473000  1.0  0.0946
  H  H423  1  0.222500  0.661500  0.980700  1.0  0.1014
  H  H424  1  0.403900  0.445500  0.371500  1.0  0.113
  H  H425  1  0.323100  0.483500  0.306200  1.0  0.0811
  H  H426  1  0.421500  0.663900  0.261100  1.0  0.1311
  H  H427  1  0.457700  0.707500  0.315100  1.0  0.1202
  H  H428  1  0.422200  0.664300  0.345300  1.0  0.1264
  H  H429  1  0.227700  0.427400  0.328600  1.0  0.1096
  H  H430  1  0.178700  0.437100  0.364900  1.0  0.1147
  H  H431  1  0.180100  0.383400  0.317900  1.0  0.1024
  H  H432  1  0.054800  0.623300  0.884800  1.0  0.1159
  H  H433  1  0.065100  0.677700  0.932700  1.0  0.1225
  H  H434  1  0.115000  0.639400  0.929300  1.0  0.1143
  H  H435  1  0.355700  0.487100  0.186100  1.0  0.1117
  H  H436  1  0.301500  0.464100  0.131600  1.0  0.1105
  H  H437  1  0.357300  0.463300  0.108500  1.0  0.1127
  H  H438  1  0.350400  0.789100  0.338600  1.0  0.0971
  H  H439  1  0.358300  0.733300  0.383600  1.0  0.1015
  H  H440  1  0.410100  0.768200  0.378700  1.0  0.0883
  H  H441  1  0.087200  0.456700  0.287600  1.0  0.1127
  H  H442  1  0.076600  0.461500  0.201300  1.0  0.113
  H  H443  1  0.089600  0.403500  0.240100  1.0  0.1094
  H  H444  1  0.126000  0.591800  0.435500  1.0  0.097
  H  H445  1  0.177100  0.562200  0.488600  1.0  0.1024
  H  H446  1  0.142800  0.605600  0.520600  1.0  0.1076
  H  H447  1  0.394400  0.573800  0.161400  1.0  0.1167
  H  H448  1  0.398900  0.549400  0.085300  1.0  0.1174
  H  H449  1  0.368200  0.605900  0.087400  1.0  0.1133
  H  H450  1  0.271900  0.663300  0.512200  1.0  0.0966
  H  H451  1  0.240500  0.639600  0.567900  1.0  0.0892
  H  H452  1  0.260100  0.599400  0.513900  1.0  0.0981
  H  H453  1  0.059800  0.788400  0.209600  1.0  0.1028
  H  H454  1  0.072500  0.851800  0.223600  1.0  0.1048
  H  H455  1  0.072600  0.825300  0.146900  1.0  0.1183
  H  H456  1  0.109100  0.791600  0.315800  1.0  0.0996
  H  H457  1  0.172800  0.780200  0.333600  1.0  0.1141
  H  H458  1  0.150900  0.841400  0.329500  1.0  0.1034
  H  H459  1  0.312700  0.507200  0.000800  1.0  0.1028
  H  H460  1  0.257000  0.524600  0.017800  1.0  0.1124
  H  H461  1  0.296100  0.570100  0.999600  1.0  0.1077
  H  H462  1  0.383300  0.743900  0.183200  1.0  0.1118
  H  H463  1  0.357800  0.793600  0.217200  1.0  0.1229
  H  H464  1  0.421400  0.781600  0.244300  1.0  0.1093
  H  H465  1  0.215800  0.435800  0.200000  1.0  0.1131
  H  H466  1  0.168400  0.391400  0.184000  1.0  0.1039
  H  H467  1  0.158100  0.449900  0.145900  1.0  0.1235
  H  H468  1  0.073200  0.525400  0.017400  1.0  0.1103
  H  H469  1  0.071300  0.537500  0.934200  1.0  0.1055
  H  H470  1  0.126300  0.546700  0.996500  1.0  0.1159
  H  H471  1  0.009500  0.590900  0.042800  1.0  0.11
  H  H472  1  0.001700  0.648800  0.002700  1.0  0.1175
  H  H473  1  0.988400  0.593900  0.956000  1.0  0.1116
  H  H474  1  0.212500  0.841200  0.231500  1.0  0.1098
  H  H475  1  0.169500  0.846900  0.153800  1.0  0.0997
  H  H476  1  0.164000  0.884200  0.220400  1.0  0.0934
  H  H477  1  0.137500  0.696500  0.420100  1.0  0.0894
  H  H478  1  0.148500  0.692600  0.506700  1.0  0.0922
  H  H479  1  0.191200  0.722600  0.471900  1.0  0.109
  H  H480  1  0.524100  0.054100  0.183900  1.0  0.0751
  H  H481  1  0.563800  0.189500  0.313000  1.0  0.0935
  H  H482  1  0.440100  0.059900  0.198600  1.0  0.0779
  H  H483  1  0.476000  0.180000  0.337400  1.0  0.0972
  H  H484  1  0.846300  0.113000  0.431100  1.0  0.0866
  H  H485  1  0.756200  0.288500  0.110500  1.0  0.0943
  H  H486  1  0.929400  0.079300  0.499600  1.0  0.1256
  H  H487  1  0.985600  0.948800  0.473000  1.0  0.0946
  H  H488  1  0.722500  0.161500  0.980700  1.0  0.1014
  H  H489  1  0.903900  0.945500  0.371500  1.0  0.113
  H  H490  1  0.823100  0.983500  0.306200  1.0  0.0811
  H  H491  1  0.921500  0.163900  0.261100  1.0  0.1311
  H  H492  1  0.957700  0.207500  0.315100  1.0  0.1202
  H  H493  1  0.922200  0.164300  0.345300  1.0  0.1264
  H  H494  1  0.727700  0.927400  0.328600  1.0  0.1096
  H  H495  1  0.678700  0.937100  0.364900  1.0  0.1147
  H  H496  1  0.680100  0.883400  0.317900  1.0  0.1024
  H  H497  1  0.554800  0.123300  0.884800  1.0  0.1159
  H  H498  1  0.565100  0.177700  0.932700  1.0  0.1225
  H  H499  1  0.615000  0.139400  0.929300  1.0  0.1143
  H  H500  1  0.855700  0.987100  0.186100  1.0  0.1117
  H  H501  1  0.801500  0.964100  0.131600  1.0  0.1105
  H  H502  1  0.857300  0.963300  0.108500  1.0  0.1127
  H  H503  1  0.850400  0.289100  0.338600  1.0  0.0971
  H  H504  1  0.858300  0.233300  0.383600  1.0  0.1015
  H  H505  1  0.910100  0.268200  0.378700  1.0  0.0883
  H  H506  1  0.587200  0.956700  0.287600  1.0  0.1127
  H  H507  1  0.576600  0.961500  0.201300  1.0  0.113
  H  H508  1  0.589600  0.903500  0.240100  1.0  0.1094
  H  H509  1  0.626000  0.091800  0.435500  1.0  0.097
  H  H510  1  0.677100  0.062200  0.488600  1.0  0.1024
  H  H511  1  0.642800  0.105600  0.520600  1.0  0.1076
  H  H512  1  0.894400  0.073800  0.161400  1.0  0.1167
  H  H513  1  0.898900  0.049400  0.085300  1.0  0.1174
  H  H514  1  0.868200  0.105900  0.087400  1.0  0.1133
  H  H515  1  0.771900  0.163300  0.512200  1.0  0.0966
  H  H516  1  0.740500  0.139600  0.567900  1.0  0.0892
  H  H517  1  0.760100  0.099400  0.513900  1.0  0.0981
  H  H518  1  0.559800  0.288400  0.209600  1.0  0.1028
  H  H519  1  0.572500  0.351800  0.223600  1.0  0.1048
  H  H520  1  0.572600  0.325300  0.146900  1.0  0.1183
  H  H521  1  0.609100  0.291600  0.315800  1.0  0.0996
  H  H522  1  0.672800  0.280200  0.333600  1.0  0.1141
  H  H523  1  0.650900  0.341400  0.329500  1.0  0.1034
  H  H524  1  0.812700  0.007200  0.000800  1.0  0.1028
  H  H525  1  0.757000  0.024600  0.017800  1.0  0.1124
  H  H526  1  0.796100  0.070100  0.999600  1.0  0.1077
  H  H527  1  0.883300  0.243900  0.183200  1.0  0.1118
  H  H528  1  0.857800  0.293600  0.217200  1.0  0.1229
  H  H529  1  0.921400  0.281600  0.244300  1.0  0.1093
  H  H530  1  0.715800  0.935800  0.200000  1.0  0.1131
  H  H531  1  0.668400  0.891400  0.184000  1.0  0.1039
  H  H532  1  0.658100  0.949900  0.145900  1.0  0.1235
  H  H533  1  0.573200  0.025400  0.017400  1.0  0.1103
  H  H534  1  0.571300  0.037500  0.934200  1.0  0.1055
  H  H535  1  0.626300  0.046700  0.996500  1.0  0.1159
  H  H536  1  0.509500  0.090900  0.042800  1.0  0.11
  H  H537  1  0.501700  0.148800  0.002700  1.0  0.1175
  H  H538  1  0.488400  0.093900  0.956000  1.0  0.1116
  H  H539  1  0.712500  0.341200  0.231500  1.0  0.1098
  H  H540  1  0.669500  0.346900  0.153800  1.0  0.0997
  H  H541  1  0.664000  0.384200  0.220400  1.0  0.0934
  H  H542  1  0.637500  0.196500  0.420100  1.0  0.0894
  H  H543  1  0.648500  0.192600  0.506700  1.0  0.0922
  H  H544  1  0.691200  0.222600  0.471900  1.0  0.109
  C  C545  1  0.196990  0.366950  0.886800  1.0  0.6697
  C  C546  1  0.015900  0.409000  0.707000  1.0  0.1316
  C  C547  1  0.037980  0.337450  0.787220  1.0  0.0581
  C  C548  1  0.963110  0.409090  0.714590  1.0  0.0826
  C  C549  1  0.984940  0.337530  0.794890  1.0  0.1175
  C  C550  1  0.149960  0.251820  0.702170  1.0  0.6341
  C  C551  1  0.358870  0.420920  0.917940  1.0  0.1846
  C  C552  1  0.157300  0.548060  0.754300  1.0  0.1816
  C  C553  1  0.108720  0.372680  0.565000  1.0  0.6763
  C  C554  1  0.171120  0.488280  0.760100  1.0  0.6664
  C  C555  1  0.253420  0.228100  0.564600  1.0  0.168
  C  C556  1  0.324240  0.306220  0.760100  1.0  0.6878
  C  C557  1  0.375600  0.273000  0.787000  1.0  0.1955
  C  C558  1  0.408470  0.440800  0.959300  1.0  -0.1927
  C  C559  1  0.480010  0.513500  0.979100  1.0  -0.1545
  C  C560  1  0.233840  0.301800  0.489600  1.0  0.142
  C  C561  1  0.194600  0.356600  0.965000  1.0  0.1552
  C  C562  1  0.393750  0.519300  0.884000  1.0  -0.1839
  C  C563  1  0.323200  0.460500  0.601900  1.0  0.165
  C  C564  1  0.069800  0.391400  0.493800  1.0  0.1395
  C  C565  1  0.345400  0.496510  0.845500  1.0  0.1706
  C  C566  1  0.423600  0.313000  0.803600  1.0  -0.3667
  C  C567  1  0.188700  0.577700  0.822500  1.0  -0.3748
  C  C568  1  0.289430  0.426400  0.642200  1.0  0.6497
  C  C569  1  0.076800  0.360100  0.429600  1.0  -0.3765
  C  C570  1  0.335500  0.516400  0.634900  1.0  -0.3829
  C  C571  1  0.373400  0.243100  0.852300  1.0  -0.3674
  C  C572  1  0.097400  0.557400  0.745000  1.0  -0.3696
  C  C573  1  0.156500  0.403700  0.978700  1.0  -0.3685
  C  C574  1  0.140300  0.193600  0.727700  1.0  0.194
  C  C575  1  0.375800  0.430200  0.609700  1.0  -0.3705
  C  C576  1  0.246000  0.364200  0.019200  1.0  -0.358
  C  C577  1  0.081200  0.180900  0.699500  1.0  -0.317
  C  C578  1  0.143600  0.195200  0.809000  1.0  -0.3491
  C  C579  1  0.294800  0.465000  0.523300  1.0  -0.3764
  C  C580  1  0.385400  0.235000  0.727500  1.0  -0.3648
  C  C581  1  0.176600  0.569700  0.690300  1.0  -0.3605
  C  C582  1  0.086700  0.450900  0.484600  1.0  -0.3531
  C  C583  1  0.012400  0.389300  0.499300  1.0  -0.3526
  C  C584  1  0.174400  0.151900  0.706600  1.0  -0.3555
  C  C585  1  0.165500  0.307600  0.966200  1.0  -0.3677
  C  C586  1  0.426970  0.491200  0.940400  1.0  0.0902
  C  C587  1  0.696990  0.866950  0.886800  1.0  0.6697
  C  C588  1  0.515900  0.909000  0.707000  1.0  0.1316
  C  C589  1  0.537980  0.837450  0.787220  1.0  0.0581
  C  C590  1  0.463110  0.909090  0.714590  1.0  0.0826
  C  C591  1  0.484940  0.837530  0.794890  1.0  0.1175
  C  C592  1  0.649960  0.751820  0.702170  1.0  0.6341
  C  C593  1  0.858870  0.920920  0.917940  1.0  0.1846
  C  C594  1  0.657300  0.048060  0.754300  1.0  0.1816
  C  C595  1  0.608720  0.872680  0.565000  1.0  0.6763
  C  C596  1  0.671120  0.988280  0.760100  1.0  0.6664
  C  C597  1  0.753420  0.728100  0.564600  1.0  0.168
  C  C598  1  0.824240  0.806220  0.760100  1.0  0.6878
  C  C599  1  0.875600  0.773000  0.787000  1.0  0.1955
  C  C600  1  0.908470  0.940800  0.959300  1.0  -0.1927
  C  C601  1  0.980010  0.013500  0.979100  1.0  -0.1545
  C  C602  1  0.733840  0.801800  0.489600  1.0  0.142
  C  C603  1  0.694600  0.856600  0.965000  1.0  0.1552
  C  C604  1  0.893750  0.019300  0.884000  1.0  -0.1839
  C  C605  1  0.823200  0.960500  0.601900  1.0  0.165
  C  C606  1  0.569800  0.891400  0.493800  1.0  0.1395
  C  C607  1  0.845400  0.996510  0.845500  1.0  0.1706
  C  C608  1  0.923600  0.813000  0.803600  1.0  -0.3667
  C  C609  1  0.688700  0.077700  0.822500  1.0  -0.3748
  C  C610  1  0.789430  0.926400  0.642200  1.0  0.6497
  C  C611  1  0.576800  0.860100  0.429600  1.0  -0.3765
  C  C612  1  0.835500  0.016400  0.634900  1.0  -0.3829
  C  C613  1  0.873400  0.743100  0.852300  1.0  -0.3674
  C  C614  1  0.597400  0.057400  0.745000  1.0  -0.3696
  C  C615  1  0.656500  0.903700  0.978700  1.0  -0.3685
  C  C616  1  0.640300  0.693600  0.727700  1.0  0.194
  C  C617  1  0.875800  0.930200  0.609700  1.0  -0.3705
  C  C618  1  0.746000  0.864200  0.019200  1.0  -0.358
  C  C619  1  0.581200  0.680900  0.699500  1.0  -0.317
  C  C620  1  0.643600  0.695200  0.809000  1.0  -0.3491
  C  C621  1  0.794800  0.965000  0.523300  1.0  -0.3764
  C  C622  1  0.885400  0.735000  0.727500  1.0  -0.3648
  C  C623  1  0.676600  0.069700  0.690300  1.0  -0.3605
  C  C624  1  0.586700  0.950900  0.484600  1.0  -0.3531
  C  C625  1  0.512400  0.889300  0.499300  1.0  -0.3526
  C  C626  1  0.674400  0.651900  0.706600  1.0  -0.3555
  C  C627  1  0.665500  0.807600  0.966200  1.0  -0.3677
  C  C628  1  0.926970  0.991200  0.940400  1.0  0.0902
  C  C629  1  0.803010  0.366950  0.613200  1.0  0.6674
  C  C630  1  0.984100  0.409000  0.793000  1.0  0.1315
  C  C631  1  0.962020  0.337450  0.712780  1.0  0.0585
  C  C632  1  0.036890  0.409090  0.785410  1.0  0.0829
  C  C633  1  0.015060  0.337530  0.705110  1.0  0.1165
  C  C634  1  0.850040  0.251820  0.797830  1.0  0.6319
  C  C635  1  0.641130  0.420920  0.582060  1.0  0.1833
  C  C636  1  0.842700  0.548060  0.745700  1.0  0.1812
  C  C637  1  0.891280  0.372680  0.935000  1.0  0.6755
  C  C638  1  0.828880  0.488280  0.739900  1.0  0.6663
  C  C639  1  0.746580  0.228100  0.935400  1.0  0.1681
  C  C640  1  0.675760  0.306220  0.739900  1.0  0.6883
  C  C641  1  0.624400  0.273000  0.713000  1.0  0.1969
  C  C642  1  0.591530  0.440800  0.540700  1.0  -0.1933
  C  C643  1  0.519990  0.513500  0.520900  1.0  -0.155
  C  C644  1  0.766160  0.301800  0.010400  1.0  0.1426
  C  C645  1  0.805400  0.356600  0.535000  1.0  0.1569
  C  C646  1  0.606250  0.519300  0.616000  1.0  -0.1839
  C  C647  1  0.676800  0.460500  0.898100  1.0  0.1646
  C  C648  1  0.930200  0.391400  0.006200  1.0  0.1378
  C  C649  1  0.654600  0.496510  0.654500  1.0  0.1702
  C  C650  1  0.576400  0.313000  0.696400  1.0  -0.3666
  C  C651  1  0.811300  0.577700  0.677500  1.0  -0.3756
  C  C652  1  0.710570  0.426400  0.857800  1.0  0.6485
  C  C653  1  0.923200  0.360100  0.070400  1.0  -0.3762
  C  C654  1  0.664500  0.516400  0.865100  1.0  -0.3809
  C  C655  1  0.626600  0.243100  0.647700  1.0  -0.3685
  C  C656  1  0.902600  0.557400  0.755000  1.0  -0.3683
  C  C657  1  0.843500  0.403700  0.521300  1.0  -0.3696
  C  C658  1  0.859700  0.193600  0.772300  1.0  0.1943
  C  C659  1  0.624200  0.430200  0.890300  1.0  -0.3704
  C  C660  1  0.754000  0.364200  0.480800  1.0  -0.357
  C  C661  1  0.918800  0.180900  0.800500  1.0  -0.3154
  C  C662  1  0.856400  0.195200  0.691000  1.0  -0.351
  C  C663  1  0.705200  0.465000  0.976700  1.0  -0.3765
  C  C664  1  0.614600  0.235000  0.772500  1.0  -0.3645
  C  C665  1  0.823400  0.569700  0.809700  1.0  -0.3592
  C  C666  1  0.913300  0.450900  0.015400  1.0  -0.3525
  C  C667  1  0.987600  0.389300  0.000700  1.0  -0.3529
  C  C668  1  0.825600  0.151900  0.793400  1.0  -0.3559
  C  C669  1  0.834500  0.307600  0.533800  1.0  -0.3707
  C  C670  1  0.573030  0.491200  0.559600  1.0  0.0904
  C  C671  1  0.303010  0.866950  0.613200  1.0  0.6674
  C  C672  1  0.484100  0.909000  0.793000  1.0  0.1315
  C  C673  1  0.462020  0.837450  0.712780  1.0  0.0585
  C  C674  1  0.536890  0.909090  0.785410  1.0  0.0829
  C  C675  1  0.515060  0.837530  0.705110  1.0  0.1165
  C  C676  1  0.350040  0.751820  0.797830  1.0  0.6319
  C  C677  1  0.141130  0.920920  0.582060  1.0  0.1833
  C  C678  1  0.342700  0.048060  0.745700  1.0  0.1812
  C  C679  1  0.391280  0.872680  0.935000  1.0  0.6755
  C  C680  1  0.328880  0.988280  0.739900  1.0  0.6663
  C  C681  1  0.246580  0.728100  0.935400  1.0  0.1681
  C  C682  1  0.175760  0.806220  0.739900  1.0  0.6883
  C  C683  1  0.124400  0.773000  0.713000  1.0  0.1969
  C  C684  1  0.091530  0.940800  0.540700  1.0  -0.1933
  C  C685  1  0.019990  0.013500  0.520900  1.0  -0.155
  C  C686  1  0.266160  0.801800  0.010400  1.0  0.1426
  C  C687  1  0.305400  0.856600  0.535000  1.0  0.1569
  C  C688  1  0.106250  0.019300  0.616000  1.0  -0.1839
  C  C689  1  0.176800  0.960500  0.898100  1.0  0.1646
  C  C690  1  0.430200  0.891400  0.006200  1.0  0.1378
  C  C691  1  0.154600  0.996510  0.654500  1.0  0.1702
  C  C692  1  0.076400  0.813000  0.696400  1.0  -0.3666
  C  C693  1  0.311300  0.077700  0.677500  1.0  -0.3756
  C  C694  1  0.210570  0.926400  0.857800  1.0  0.6485
  C  C695  1  0.423200  0.860100  0.070400  1.0  -0.3762
  C  C696  1  0.164500  0.016400  0.865100  1.0  -0.3809
  C  C697  1  0.126600  0.743100  0.647700  1.0  -0.3685
  C  C698  1  0.402600  0.057400  0.755000  1.0  -0.3683
  C  C699  1  0.343500  0.903700  0.521300  1.0  -0.3696
  C  C700  1  0.359700  0.693600  0.772300  1.0  0.1943
  C  C701  1  0.124200  0.930200  0.890300  1.0  -0.3704
  C  C702  1  0.254000  0.864200  0.480800  1.0  -0.357
  C  C703  1  0.418800  0.680900  0.800500  1.0  -0.3154
  C  C704  1  0.356400  0.695200  0.691000  1.0  -0.351
  C  C705  1  0.205200  0.965000  0.976700  1.0  -0.3765
  C  C706  1  0.114600  0.735000  0.772500  1.0  -0.3645
  C  C707  1  0.323400  0.069700  0.809700  1.0  -0.3592
  C  C708  1  0.413300  0.950900  0.015400  1.0  -0.3525
  C  C709  1  0.487600  0.889300  0.000700  1.0  -0.3529
  C  C710  1  0.325600  0.651900  0.793400  1.0  -0.3559
  C  C711  1  0.334500  0.807600  0.533800  1.0  -0.3707
  C  C712  1  0.073030  0.991200  0.559600  1.0  0.0904
  C  C713  1  0.803010  0.633050  0.113200  1.0  0.6672
  C  C714  1  0.984100  0.591000  0.293000  1.0  0.1309
  C  C715  1  0.962020  0.662550  0.212780  1.0  0.0607
  C  C716  1  0.036890  0.590910  0.285410  1.0  0.0824
  C  C717  1  0.015060  0.662470  0.205110  1.0  0.1152
  C  C718  1  0.850040  0.748180  0.297830  1.0  0.6303
  C  C719  1  0.641130  0.579080  0.082060  1.0  0.1835
  C  C720  1  0.842700  0.451940  0.245700  1.0  0.182
  C  C721  1  0.891280  0.627320  0.435000  1.0  0.6765
  C  C722  1  0.828880  0.511720  0.239900  1.0  0.6695
  C  C723  1  0.746580  0.771900  0.435400  1.0  0.1678
  C  C724  1  0.675760  0.693780  0.239900  1.0  0.6888
  C  C725  1  0.624400  0.727000  0.213000  1.0  0.1967
  C  C726  1  0.591530  0.559200  0.040700  1.0  -0.193
  C  C727  1  0.519990  0.486500  0.020900  1.0  -0.1564
  C  C728  1  0.766160  0.698200  0.510400  1.0  0.1419
  C  C729  1  0.805400  0.643400  0.035000  1.0  0.1567
  C  C730  1  0.606250  0.480700  0.116000  1.0  -0.1843
  C  C731  1  0.676800  0.539500  0.398100  1.0  0.1648
  C  C732  1  0.930200  0.608600  0.506200  1.0  0.1388
  C  C733  1  0.654600  0.503490  0.154500  1.0  0.1704
  C  C734  1  0.576400  0.687000  0.196400  1.0  -0.3668
  C  C735  1  0.811300  0.422300  0.177500  1.0  -0.3759
  C  C736  1  0.710570  0.573600  0.357800  1.0  0.6482
  C  C737  1  0.923200  0.639900  0.570400  1.0  -0.3757
  C  C738  1  0.664500  0.483600  0.365100  1.0  -0.3824
  C  C739  1  0.626600  0.756900  0.147700  1.0  -0.3678
  C  C740  1  0.902600  0.442600  0.255000  1.0  -0.3681
  C  C741  1  0.843500  0.596300  0.021300  1.0  -0.3694
  C  C742  1  0.859700  0.806400  0.272300  1.0  0.1956
  C  C743  1  0.624200  0.569800  0.390300  1.0  -0.3704
  C  C744  1  0.754000  0.635800  0.980800  1.0  -0.3564
  C  C745  1  0.918800  0.819100  0.300500  1.0  -0.3152
  C  C746  1  0.856400  0.804800  0.191000  1.0  -0.351
  C  C747  1  0.705200  0.535000  0.476700  1.0  -0.3772
  C  C748  1  0.614600  0.765000  0.272500  1.0  -0.3635
  C  C749  1  0.823400  0.430300  0.309700  1.0  -0.3598
  C  C750  1  0.913300  0.549100  0.515400  1.0  -0.3525
  C  C751  1  0.987600  0.610700  0.500700  1.0  -0.3532
  C  C752  1  0.825600  0.848100  0.293400  1.0  -0.3553
  C  C753  1  0.834500  0.692400  0.033800  1.0  -0.3699
  C  C754  1  0.573030  0.508800  0.059600  1.0  0.0904
  C  C755  1  0.303010  0.133050  0.113200  1.0  0.6672
  C  C756  1  0.484100  0.091000  0.293000  1.0  0.1309
  C  C757  1  0.462020  0.162550  0.212780  1.0  0.0607
  C  C758  1  0.536890  0.090910  0.285410  1.0  0.0824
  C  C759  1  0.515060  0.162470  0.205110  1.0  0.1152
  C  C760  1  0.350040  0.248180  0.297830  1.0  0.6303
  C  C761  1  0.141130  0.079080  0.082060  1.0  0.1835
  C  C762  1  0.342700  0.951940  0.245700  1.0  0.182
  C  C763  1  0.391280  0.127320  0.435000  1.0  0.6765
  C  C764  1  0.328880  0.011720  0.239900  1.0  0.6695
  C  C765  1  0.246580  0.271900  0.435400  1.0  0.1678
  C  C766  1  0.175760  0.193780  0.239900  1.0  0.6888
  C  C767  1  0.124400  0.227000  0.213000  1.0  0.1967
  C  C768  1  0.091530  0.059200  0.040700  1.0  -0.193
  C  C769  1  0.019990  0.986500  0.020900  1.0  -0.1564
  C  C770  1  0.266160  0.198200  0.510400  1.0  0.1419
  C  C771  1  0.305400  0.143400  0.035000  1.0  0.1567
  C  C772  1  0.106250  0.980700  0.116000  1.0  -0.1843
  C  C773  1  0.176800  0.039500  0.398100  1.0  0.1648
  C  C774  1  0.430200  0.108600  0.506200  1.0  0.1388
  C  C775  1  0.154600  0.003490  0.154500  1.0  0.1704
  C  C776  1  0.076400  0.187000  0.196400  1.0  -0.3668
  C  C777  1  0.311300  0.922300  0.177500  1.0  -0.3759
  C  C778  1  0.210570  0.073600  0.357800  1.0  0.6482
  C  C779  1  0.423200  0.139900  0.570400  1.0  -0.3757
  C  C780  1  0.164500  0.983600  0.365100  1.0  -0.3824
  C  C781  1  0.126600  0.256900  0.147700  1.0  -0.3678
  C  C782  1  0.402600  0.942600  0.255000  1.0  -0.3681
  C  C783  1  0.343500  0.096300  0.021300  1.0  -0.3694
  C  C784  1  0.359700  0.306400  0.272300  1.0  0.1956
  C  C785  1  0.124200  0.069800  0.390300  1.0  -0.3704
  C  C786  1  0.254000  0.135800  0.980800  1.0  -0.3564
  C  C787  1  0.418800  0.319100  0.300500  1.0  -0.3152
  C  C788  1  0.356400  0.304800  0.191000  1.0  -0.351
  C  C789  1  0.205200  0.035000  0.476700  1.0  -0.3772
  C  C790  1  0.114600  0.265000  0.272500  1.0  -0.3635
  C  C791  1  0.323400  0.930300  0.309700  1.0  -0.3598
  C  C792  1  0.413300  0.049100  0.515400  1.0  -0.3525
  C  C793  1  0.487600  0.110700  0.500700  1.0  -0.3532
  C  C794  1  0.325600  0.348100  0.293400  1.0  -0.3553
  C  C795  1  0.334500  0.192400  0.033800  1.0  -0.3699
  C  C796  1  0.073030  0.008800  0.059600  1.0  0.0904
  C  C797  1  0.196990  0.633050  0.386800  1.0  0.6699
  C  C798  1  0.015900  0.591000  0.207000  1.0  0.1303
  C  C799  1  0.037980  0.662550  0.287220  1.0  0.0621
  C  C800  1  0.963110  0.590910  0.214590  1.0  0.081
  C  C801  1  0.984940  0.662470  0.294890  1.0  0.1165
  C  C802  1  0.149960  0.748180  0.202170  1.0  0.6324
  C  C803  1  0.358870  0.579080  0.417940  1.0  0.1842
  C  C804  1  0.157300  0.451940  0.254300  1.0  0.1823
  C  C805  1  0.108720  0.627320  0.065000  1.0  0.6754
  C  C806  1  0.171120  0.511720  0.260100  1.0  0.6693
  C  C807  1  0.253420  0.771900  0.064600  1.0  0.1676
  C  C808  1  0.324240  0.693780  0.260100  1.0  0.6881
  C  C809  1  0.375600  0.727000  0.287000  1.0  0.1958
  C  C810  1  0.408470  0.559200  0.459300  1.0  -0.1931
  C  C811  1  0.480010  0.486500  0.479100  1.0  -0.1555
  C  C812  1  0.233840  0.698200  0.989600  1.0  0.141
  C  C813  1  0.194600  0.643400  0.465000  1.0  0.1552
  C  C814  1  0.393750  0.480700  0.384000  1.0  -0.1839
  C  C815  1  0.323200  0.539500  0.101900  1.0  0.1647
  C  C816  1  0.069800  0.608600  0.993800  1.0  0.1404
  C  C817  1  0.345400  0.503490  0.345500  1.0  0.1706
  C  C818  1  0.423600  0.687000  0.303600  1.0  -0.3665
  C  C819  1  0.188700  0.422300  0.322500  1.0  -0.3754
  C  C820  1  0.289430  0.573600  0.142200  1.0  0.6486
  C  C821  1  0.076800  0.639900  0.929600  1.0  -0.3758
  C  C822  1  0.335500  0.483600  0.134900  1.0  -0.3839
  C  C823  1  0.373400  0.756900  0.352300  1.0  -0.3666
  C  C824  1  0.097400  0.442600  0.245000  1.0  -0.3698
  C  C825  1  0.156500  0.596300  0.478700  1.0  -0.3679
  C  C826  1  0.140300  0.806400  0.227700  1.0  0.195
  C  C827  1  0.375800  0.569800  0.109700  1.0  -0.3709
  C  C828  1  0.246000  0.635800  0.519200  1.0  -0.3584
  C  C829  1  0.081200  0.819100  0.199500  1.0  -0.317
  C  C830  1  0.143600  0.804800  0.309000  1.0  -0.3498
  C  C831  1  0.294800  0.535000  0.023300  1.0  -0.3764
  C  C832  1  0.385400  0.765000  0.227500  1.0  -0.3647
  C  C833  1  0.176600  0.430300  0.190300  1.0  -0.3605
  C  C834  1  0.086700  0.549100  0.984600  1.0  -0.353
  C  C835  1  0.012400  0.610700  0.999300  1.0  -0.3521
  C  C836  1  0.174400  0.848100  0.206600  1.0  -0.3557
  C  C837  1  0.165500  0.692400  0.466200  1.0  -0.3678
  C  C838  1  0.426970  0.508800  0.440400  1.0  0.0901
  C  C839  1  0.696990  0.133050  0.386800  1.0  0.6699
  C  C840  1  0.515900  0.091000  0.207000  1.0  0.1303
  C  C841  1  0.537980  0.162550  0.287220  1.0  0.0621
  C  C842  1  0.463110  0.090910  0.214590  1.0  0.081
  C  C843  1  0.484940  0.162470  0.294890  1.0  0.1165
  C  C844  1  0.649960  0.248180  0.202170  1.0  0.6324
  C  C845  1  0.858870  0.079080  0.417940  1.0  0.1842
  C  C846  1  0.657300  0.951940  0.254300  1.0  0.1823
  C  C847  1  0.608720  0.127320  0.065000  1.0  0.6754
  C  C848  1  0.671120  0.011720  0.260100  1.0  0.6693
  C  C849  1  0.753420  0.271900  0.064600  1.0  0.1676
  C  C850  1  0.824240  0.193780  0.260100  1.0  0.6881
  C  C851  1  0.875600  0.227000  0.287000  1.0  0.1958
  C  C852  1  0.908470  0.059200  0.459300  1.0  -0.1931
  C  C853  1  0.980010  0.986500  0.479100  1.0  -0.1555
  C  C854  1  0.733840  0.198200  0.989600  1.0  0.141
  C  C855  1  0.694600  0.143400  0.465000  1.0  0.1552
  C  C856  1  0.893750  0.980700  0.384000  1.0  -0.1839
  C  C857  1  0.823200  0.039500  0.101900  1.0  0.1647
  C  C858  1  0.569800  0.108600  0.993800  1.0  0.1404
  C  C859  1  0.845400  0.003490  0.345500  1.0  0.1706
  C  C860  1  0.923600  0.187000  0.303600  1.0  -0.3665
  C  C861  1  0.688700  0.922300  0.322500  1.0  -0.3754
  C  C862  1  0.789430  0.073600  0.142200  1.0  0.6486
  C  C863  1  0.576800  0.139900  0.929600  1.0  -0.3758
  C  C864  1  0.835500  0.983600  0.134900  1.0  -0.3839
  C  C865  1  0.873400  0.256900  0.352300  1.0  -0.3666
  C  C866  1  0.597400  0.942600  0.245000  1.0  -0.3698
  C  C867  1  0.656500  0.096300  0.478700  1.0  -0.3679
  C  C868  1  0.640300  0.306400  0.227700  1.0  0.195
  C  C869  1  0.875800  0.069800  0.109700  1.0  -0.3709
  C  C870  1  0.746000  0.135800  0.519200  1.0  -0.3584
  C  C871  1  0.581200  0.319100  0.199500  1.0  -0.317
  C  C872  1  0.643600  0.304800  0.309000  1.0  -0.3498
  C  C873  1  0.794800  0.035000  0.023300  1.0  -0.3764
  C  C874  1  0.885400  0.265000  0.227500  1.0  -0.3647
  C  C875  1  0.676600  0.930300  0.190300  1.0  -0.3605
  C  C876  1  0.586700  0.049100  0.984600  1.0  -0.353
  C  C877  1  0.512400  0.110700  0.999300  1.0  -0.3521
  C  C878  1  0.674400  0.348100  0.206600  1.0  -0.3557
  C  C879  1  0.665500  0.192400  0.466200  1.0  -0.3678
  C  C880  1  0.926970  0.008800  0.440400  1.0  0.0901
  N  N881  1  0.052060  0.373550  0.741580  1.0  -0.0518
  N  N882  1  0.328430  0.447350  0.861000  1.0  -0.3113
  N  N883  1  0.237280  0.279810  0.554500  1.0  -0.3087
  N  N884  1  0.552060  0.873550  0.741580  1.0  -0.0518
  N  N885  1  0.828430  0.947350  0.861000  1.0  -0.3113
  N  N886  1  0.737280  0.779810  0.554500  1.0  -0.3087
  N  N887  1  0.947940  0.373550  0.758420  1.0  -0.0596
  N  N888  1  0.671570  0.447350  0.639000  1.0  -0.3114
  N  N889  1  0.762720  0.279810  0.945500  1.0  -0.3087
  N  N890  1  0.447940  0.873550  0.758420  1.0  -0.0596
  N  N891  1  0.171570  0.947350  0.639000  1.0  -0.3114
  N  N892  1  0.262720  0.779810  0.945500  1.0  -0.3087
  N  N893  1  0.947940  0.626450  0.258420  1.0  -0.0596
  N  N894  1  0.671570  0.552650  0.139000  1.0  -0.3106
  N  N895  1  0.762720  0.720190  0.445500  1.0  -0.3093
  N  N896  1  0.447940  0.126450  0.258420  1.0  -0.0596
  N  N897  1  0.171570  0.052650  0.139000  1.0  -0.3106
  N  N898  1  0.262720  0.220190  0.445500  1.0  -0.3093
  N  N899  1  0.052060  0.626450  0.241580  1.0  -0.0515
  N  N900  1  0.328430  0.552650  0.361000  1.0  -0.3114
  N  N901  1  0.237280  0.720190  0.054500  1.0  -0.3078
  N  N902  1  0.552060  0.126450  0.241580  1.0  -0.0515
  N  N903  1  0.828430  0.052650  0.361000  1.0  -0.3114
  N  N904  1  0.737280  0.220190  0.054500  1.0  -0.3078
  O  O905  1  0.154010  0.362850  0.839220  1.0  -0.5742
  O  O906  1  0.133330  0.453800  0.740660  1.0  -0.6044
  O  O907  1  0.242160  0.380460  0.876970  1.0  -0.6026
  O  O908  1  0.095240  0.381970  0.622460  1.0  -0.5952
  O  O909  1  0.220440  0.476160  0.783560  1.0  -0.6136
  O  O910  1  0.316710  0.343620  0.800900  1.0  -0.5865
  O  O911  1  0.183400  0.258120  0.665640  1.0  -0.5899
  O  O912  1  0.122830  0.288510  0.721350  1.0  -0.5988
  O  O913  1  0.292720  0.294240  0.700370  1.0  -0.5881
  O  O914  1  0.262060  0.387650  0.607480  1.0  -0.5985
  O  O915  1  0.205840  0.368540  0.719380  1.0  -0.9433
  O  O916  1  0.152700  0.351180  0.562120  1.0  -0.6031
  O  O917  1  0.294850  0.437590  0.707410  1.0  -0.6025
  O  O918  1  0.654010  0.862850  0.839220  1.0  -0.5742
  O  O919  1  0.633330  0.953800  0.740660  1.0  -0.6044
  O  O920  1  0.742160  0.880460  0.876970  1.0  -0.6026
  O  O921  1  0.595240  0.881970  0.622460  1.0  -0.5952
  O  O922  1  0.720440  0.976160  0.783560  1.0  -0.6136
  O  O923  1  0.816710  0.843620  0.800900  1.0  -0.5865
  O  O924  1  0.683400  0.758120  0.665640  1.0  -0.5899
  O  O925  1  0.622830  0.788510  0.721350  1.0  -0.5988
  O  O926  1  0.792720  0.794240  0.700370  1.0  -0.5881
  O  O927  1  0.762060  0.887650  0.607480  1.0  -0.5985
  O  O928  1  0.705840  0.868540  0.719380  1.0  -0.9433
  O  O929  1  0.652700  0.851180  0.562120  1.0  -0.6031
  O  O930  1  0.794850  0.937590  0.707410  1.0  -0.6025
  O  O931  1  0.845990  0.362850  0.660780  1.0  -0.5738
  O  O932  1  0.866670  0.453800  0.759340  1.0  -0.6045
  O  O933  1  0.757840  0.380460  0.623030  1.0  -0.6021
  O  O934  1  0.904760  0.381970  0.877540  1.0  -0.5935
  O  O935  1  0.779560  0.476160  0.716440  1.0  -0.6135
  O  O936  1  0.683290  0.343620  0.699100  1.0  -0.5865
  O  O937  1  0.816600  0.258120  0.834360  1.0  -0.5879
  O  O938  1  0.877170  0.288510  0.778650  1.0  -0.5987
  O  O939  1  0.707280  0.294240  0.799630  1.0  -0.5875
  O  O940  1  0.737940  0.387650  0.892520  1.0  -0.5989
  O  O941  1  0.794160  0.368540  0.780620  1.0  -0.9425
  O  O942  1  0.847300  0.351180  0.937880  1.0  -0.6022
  O  O943  1  0.705150  0.437590  0.792590  1.0  -0.6011
  O  O944  1  0.345990  0.862850  0.660780  1.0  -0.5738
  O  O945  1  0.366670  0.953800  0.759340  1.0  -0.6045
  O  O946  1  0.257840  0.880460  0.623030  1.0  -0.6021
  O  O947  1  0.404760  0.881970  0.877540  1.0  -0.5935
  O  O948  1  0.279560  0.976160  0.716440  1.0  -0.6135
  O  O949  1  0.183290  0.843620  0.699100  1.0  -0.5865
  O  O950  1  0.316600  0.758120  0.834360  1.0  -0.5879
  O  O951  1  0.377170  0.788510  0.778650  1.0  -0.5987
  O  O952  1  0.207280  0.794240  0.799630  1.0  -0.5875
  O  O953  1  0.237940  0.887650  0.892520  1.0  -0.5989
  O  O954  1  0.294160  0.868540  0.780620  1.0  -0.9425
  O  O955  1  0.347300  0.851180  0.937880  1.0  -0.6022
  O  O956  1  0.205150  0.937590  0.792590  1.0  -0.6011
  O  O957  1  0.845990  0.637150  0.160780  1.0  -0.5748
  O  O958  1  0.866670  0.546200  0.259340  1.0  -0.6045
  O  O959  1  0.757840  0.619540  0.123030  1.0  -0.6025
  O  O960  1  0.904760  0.618030  0.377540  1.0  -0.5938
  O  O961  1  0.779560  0.523840  0.216440  1.0  -0.6135
  O  O962  1  0.683290  0.656380  0.199100  1.0  -0.5863
  O  O963  1  0.816600  0.741880  0.334360  1.0  -0.5891
  O  O964  1  0.877170  0.711490  0.278650  1.0  -0.5988
  O  O965  1  0.707280  0.705760  0.299630  1.0  -0.5879
  O  O966  1  0.737940  0.612350  0.392520  1.0  -0.5989
  O  O967  1  0.794160  0.631460  0.280620  1.0  -0.9426
  O  O968  1  0.847300  0.648820  0.437880  1.0  -0.6023
  O  O969  1  0.705150  0.562410  0.292590  1.0  -0.6021
  O  O970  1  0.345990  0.137150  0.160780  1.0  -0.5748
  O  O971  1  0.366670  0.046200  0.259340  1.0  -0.6045
  O  O972  1  0.257840  0.119540  0.123030  1.0  -0.6025
  O  O973  1  0.404760  0.118030  0.377540  1.0  -0.5938
  O  O974  1  0.279560  0.023840  0.216440  1.0  -0.6135
  O  O975  1  0.183290  0.156380  0.199100  1.0  -0.5863
  O  O976  1  0.316600  0.241880  0.334360  1.0  -0.5891
  O  O977  1  0.377170  0.211490  0.278650  1.0  -0.5988
  O  O978  1  0.207280  0.205760  0.299630  1.0  -0.5879
  O  O979  1  0.237940  0.112350  0.392520  1.0  -0.5989
  O  O980  1  0.294160  0.131460  0.280620  1.0  -0.9426
  O  O981  1  0.347300  0.148820  0.437880  1.0  -0.6023
  O  O982  1  0.205150  0.062410  0.292590  1.0  -0.6021
  O  O983  1  0.154010  0.637150  0.339220  1.0  -0.5743
  O  O984  1  0.133330  0.546200  0.240660  1.0  -0.6038
  O  O985  1  0.242160  0.619540  0.376970  1.0  -0.6021
  O  O986  1  0.095240  0.618030  0.122460  1.0  -0.5946
  O  O987  1  0.220440  0.523840  0.283560  1.0  -0.6135
  O  O988  1  0.316710  0.656380  0.300900  1.0  -0.5861
  O  O989  1  0.183400  0.741880  0.165640  1.0  -0.5891
  O  O990  1  0.122830  0.711490  0.221350  1.0  -0.5985
  O  O991  1  0.292720  0.705760  0.200370  1.0  -0.5872
  O  O992  1  0.262060  0.612350  0.107480  1.0  -0.5975
  O  O993  1  0.205840  0.631460  0.219380  1.0  -0.9434
  O  O994  1  0.152700  0.648820  0.062120  1.0  -0.6028
  O  O995  1  0.294850  0.562410  0.207410  1.0  -0.6014
  O  O996  1  0.654010  0.137150  0.339220  1.0  -0.5743
  O  O997  1  0.633330  0.046200  0.240660  1.0  -0.6038
  O  O998  1  0.742160  0.119540  0.376970  1.0  -0.6021
  O  O999  1  0.595240  0.118030  0.122460  1.0  -0.5946
  O  O1000  1  0.720440  0.023840  0.283560  1.0  -0.6135
  O  O1001  1  0.816710  0.156380  0.300900  1.0  -0.5861
  O  O1002  1  0.683400  0.241880  0.165640  1.0  -0.5891
  O  O1003  1  0.622830  0.211490  0.221350  1.0  -0.5985
  O  O1004  1  0.792720  0.205760  0.200370  1.0  -0.5872
  O  O1005  1  0.762060  0.112350  0.107480  1.0  -0.5975
  O  O1006  1  0.705840  0.131460  0.219380  1.0  -0.9434
  O  O1007  1  0.652700  0.148820  0.062120  1.0  -0.6028
  O  O1008  1  0.794850  0.062410  0.207410  1.0  -0.6014
