# generated using pymatgen
data_AgH24(C3N)4
_symmetry_space_group_name_H-M   'P 1'
_cell_length_a   45.61100000
_cell_length_b   45.61100000
_cell_length_c   45.61100000
_cell_angle_alpha   90.00000000
_cell_angle_beta   90.00000000
_cell_angle_gamma   90.00000000
_symmetry_Int_Tables_number   1
_chemical_formula_structural   AgH24(C3N)4
_chemical_formula_sum   'Ag136 H3264 C1632 N544'
_cell_volume   94887.45143413
_cell_formula_units_Z   136
loop_
 _symmetry_equiv_pos_site_id
 _symmetry_equiv_pos_as_xyz
  1  'x, y, z'
loop_
 _atom_site_type_symbol
 _atom_site_label
 _atom_site_symmetry_multiplicity
 _atom_site_fract_x
 _atom_site_fract_y
 _atom_site_fract_z
 _atom_site_occupancy
 _atom_site_charge
  Ag  Ag1  1  0.125000  0.625000  0.125000  1.0  0.2472
  Ag  Ag2  1  0.125000  0.125000  0.625000  1.0  0.2472
  Ag  Ag3  1  0.625000  0.625000  0.625000  1.0  0.2472
  Ag  Ag4  1  0.625000  0.125000  0.125000  1.0  0.2472
  Ag  Ag5  1  0.375000  0.375000  0.375000  1.0  0.2472
  Ag  Ag6  1  0.375000  0.875000  0.875000  1.0  0.2472
  Ag  Ag7  1  0.875000  0.375000  0.875000  1.0  0.2472
  Ag  Ag8  1  0.875000  0.875000  0.375000  1.0  0.2472
  Ag  Ag9  1  0.217600  0.532400  0.032400  1.0  0.2692
  Ag  Ag10  1  0.532400  0.717600  0.532400  1.0  0.2699
  Ag  Ag11  1  0.032400  0.032400  0.717600  1.0  0.2693
  Ag  Ag12  1  0.717600  0.217600  0.217600  1.0  0.2696
  Ag  Ag13  1  0.717600  0.717600  0.717600  1.0  0.2696
  Ag  Ag14  1  0.032400  0.217600  0.532400  1.0  0.2699
  Ag  Ag15  1  0.532400  0.532400  0.717600  1.0  0.2693
  Ag  Ag16  1  0.717600  0.032400  0.032400  1.0  0.2692
  Ag  Ag17  1  0.217600  0.717600  0.217600  1.0  0.2696
  Ag  Ag18  1  0.532400  0.032400  0.217600  1.0  0.2693
  Ag  Ag19  1  0.717600  0.532400  0.532400  1.0  0.2692
  Ag  Ag20  1  0.032400  0.717600  0.032400  1.0  0.2699
  Ag  Ag21  1  0.217600  0.217600  0.717600  1.0  0.2696
  Ag  Ag22  1  0.282400  0.467600  0.467600  1.0  0.2697
  Ag  Ag23  1  0.467600  0.782400  0.967600  1.0  0.2691
  Ag  Ag24  1  0.782400  0.282400  0.782400  1.0  0.2693
  Ag  Ag25  1  0.967600  0.967600  0.282400  1.0  0.2699
  Ag  Ag26  1  0.967600  0.282400  0.967600  1.0  0.2691
  Ag  Ag27  1  0.282400  0.782400  0.782400  1.0  0.2693
  Ag  Ag28  1  0.282400  0.282400  0.282400  1.0  0.2693
  Ag  Ag29  1  0.782400  0.967600  0.467600  1.0  0.2697
  Ag  Ag30  1  0.467600  0.467600  0.282400  1.0  0.2699
  Ag  Ag31  1  0.782400  0.782400  0.282400  1.0  0.2693
  Ag  Ag32  1  0.282400  0.967600  0.967600  1.0  0.2697
  Ag  Ag33  1  0.467600  0.282400  0.467600  1.0  0.2691
  Ag  Ag34  1  0.967600  0.467600  0.782400  1.0  0.2699
  Ag  Ag35  1  0.782400  0.467600  0.967600  1.0  0.2697
  Ag  Ag36  1  0.967600  0.782400  0.467600  1.0  0.2691
  Ag  Ag37  1  0.467600  0.967600  0.782400  1.0  0.2699
  Ag  Ag38  1  0.532400  0.217600  0.032400  1.0  0.2699
  Ag  Ag39  1  0.217600  0.032400  0.532400  1.0  0.2692
  Ag  Ag40  1  0.032400  0.532400  0.217600  1.0  0.2693
  Ag  Ag41  1  0.371340  0.567600  0.067600  1.0  0.2379
  Ag  Ag42  1  0.871340  0.567600  0.567600  1.0  0.2379
  Ag  Ag43  1  0.378660  0.682400  0.567600  1.0  0.2381
  Ag  Ag44  1  0.378660  0.182400  0.067600  1.0  0.2381
  Ag  Ag45  1  0.878660  0.067600  0.682400  1.0  0.2384
  Ag  Ag46  1  0.878660  0.567600  0.182400  1.0  0.2384
  Ag  Ag47  1  0.871340  0.182400  0.182400  1.0  0.2383
  Ag  Ag48  1  0.871340  0.682400  0.682400  1.0  0.2383
  Ag  Ag49  1  0.371340  0.182400  0.682400  1.0  0.2383
  Ag  Ag50  1  0.371340  0.682400  0.182400  1.0  0.2383
  Ag  Ag51  1  0.067600  0.371340  0.567600  1.0  0.2381
  Ag  Ag52  1  0.067600  0.871340  0.067600  1.0  0.2381
  Ag  Ag53  1  0.567600  0.871340  0.567600  1.0  0.2381
  Ag  Ag54  1  0.567600  0.378660  0.682400  1.0  0.2387
  Ag  Ag55  1  0.567600  0.878660  0.182400  1.0  0.2387
  Ag  Ag56  1  0.682400  0.878660  0.067600  1.0  0.2382
  Ag  Ag57  1  0.182400  0.878660  0.567600  1.0  0.2382
  Ag  Ag58  1  0.182400  0.871340  0.182400  1.0  0.2385
  Ag  Ag59  1  0.182400  0.371340  0.682400  1.0  0.2385
  Ag  Ag60  1  0.682400  0.871340  0.682400  1.0  0.2385
  Ag  Ag61  1  0.682400  0.371340  0.182400  1.0  0.2385
  Ag  Ag62  1  0.567600  0.067600  0.371340  1.0  0.2382
  Ag  Ag63  1  0.567600  0.567600  0.871340  1.0  0.2382
  Ag  Ag64  1  0.682400  0.567600  0.378660  1.0  0.2383
  Ag  Ag65  1  0.182400  0.567600  0.878660  1.0  0.2383
  Ag  Ag66  1  0.067600  0.682400  0.878660  1.0  0.2383
  Ag  Ag67  1  0.067600  0.182400  0.378660  1.0  0.2383
  Ag  Ag68  1  0.182400  0.182400  0.871340  1.0  0.2382
  Ag  Ag69  1  0.182400  0.682400  0.371340  1.0  0.2382
  Ag  Ag70  1  0.682400  0.182400  0.371340  1.0  0.2382
  Ag  Ag71  1  0.682400  0.682400  0.871340  1.0  0.2382
  Ag  Ag72  1  0.317600  0.621340  0.432400  1.0  0.2385
  Ag  Ag73  1  0.817600  0.621340  0.932400  1.0  0.2385
  Ag  Ag74  1  0.432400  0.628660  0.932400  1.0  0.2387
  Ag  Ag75  1  0.432400  0.128660  0.432400  1.0  0.2387
  Ag  Ag76  1  0.932400  0.128660  0.932400  1.0  0.2387
  Ag  Ag77  1  0.817600  0.128660  0.817600  1.0  0.2382
  Ag  Ag78  1  0.817600  0.628660  0.317600  1.0  0.2382
  Ag  Ag79  1  0.317600  0.128660  0.317600  1.0  0.2382
  Ag  Ag80  1  0.317600  0.628660  0.817600  1.0  0.2382
  Ag  Ag81  1  0.932400  0.121340  0.317600  1.0  0.2381
  Ag  Ag82  1  0.932400  0.621340  0.817600  1.0  0.2381
  Ag  Ag83  1  0.121340  0.317600  0.932400  1.0  0.2382
  Ag  Ag84  1  0.121340  0.817600  0.432400  1.0  0.2382
  Ag  Ag85  1  0.128660  0.817600  0.817600  1.0  0.2381
  Ag  Ag86  1  0.128660  0.317600  0.317600  1.0  0.2381
  Ag  Ag87  1  0.628660  0.817600  0.317600  1.0  0.2381
  Ag  Ag88  1  0.628660  0.317600  0.817600  1.0  0.2381
  Ag  Ag89  1  0.628660  0.932400  0.432400  1.0  0.2385
  Ag  Ag90  1  0.128660  0.932400  0.932400  1.0  0.2385
  Ag  Ag91  1  0.621340  0.432400  0.317600  1.0  0.2379
  Ag  Ag92  1  0.621340  0.932400  0.817600  1.0  0.2379
  Ag  Ag93  1  0.817600  0.817600  0.128660  1.0  0.2383
  Ag  Ag94  1  0.817600  0.317600  0.628660  1.0  0.2383
  Ag  Ag95  1  0.317600  0.817600  0.628660  1.0  0.2383
  Ag  Ag96  1  0.317600  0.317600  0.128660  1.0  0.2383
  Ag  Ag97  1  0.317600  0.932400  0.121340  1.0  0.2382
  Ag  Ag98  1  0.817600  0.932400  0.621340  1.0  0.2382
  Ag  Ag99  1  0.432400  0.317600  0.621340  1.0  0.2382
  Ag  Ag100  1  0.432400  0.817600  0.121340  1.0  0.2382
  Ag  Ag101  1  0.932400  0.432400  0.628660  1.0  0.2383
  Ag  Ag102  1  0.932400  0.932400  0.128660  1.0  0.2383
  Ag  Ag103  1  0.628660  0.432400  0.932400  1.0  0.2385
  Ag  Ag104  1  0.128660  0.432400  0.432400  1.0  0.2385
  Ag  Ag105  1  0.621340  0.317600  0.432400  1.0  0.2382
  Ag  Ag106  1  0.621340  0.817600  0.932400  1.0  0.2382
  Ag  Ag107  1  0.121340  0.932400  0.317600  1.0  0.2379
  Ag  Ag108  1  0.121340  0.432400  0.817600  1.0  0.2379
  Ag  Ag109  1  0.932400  0.628660  0.432400  1.0  0.2387
  Ag  Ag110  1  0.432400  0.621340  0.317600  1.0  0.2381
  Ag  Ag111  1  0.432400  0.121340  0.817600  1.0  0.2381
  Ag  Ag112  1  0.317600  0.121340  0.932400  1.0  0.2385
  Ag  Ag113  1  0.817600  0.121340  0.432400  1.0  0.2385
  Ag  Ag114  1  0.432400  0.932400  0.628660  1.0  0.2383
  Ag  Ag115  1  0.432400  0.432400  0.128660  1.0  0.2383
  Ag  Ag116  1  0.317600  0.432400  0.621340  1.0  0.2382
  Ag  Ag117  1  0.817600  0.432400  0.121340  1.0  0.2382
  Ag  Ag118  1  0.932400  0.317600  0.121340  1.0  0.2382
  Ag  Ag119  1  0.932400  0.817600  0.621340  1.0  0.2382
  Ag  Ag120  1  0.682400  0.378660  0.567600  1.0  0.2382
  Ag  Ag121  1  0.182400  0.378660  0.067600  1.0  0.2382
  Ag  Ag122  1  0.567600  0.371340  0.067600  1.0  0.2381
  Ag  Ag123  1  0.067600  0.878660  0.682400  1.0  0.2387
  Ag  Ag124  1  0.067600  0.378660  0.182400  1.0  0.2387
  Ag  Ag125  1  0.878660  0.682400  0.067600  1.0  0.2381
  Ag  Ag126  1  0.878660  0.182400  0.567600  1.0  0.2381
  Ag  Ag127  1  0.371340  0.067600  0.567600  1.0  0.2379
  Ag  Ag128  1  0.871340  0.067600  0.067600  1.0  0.2379
  Ag  Ag129  1  0.378660  0.567600  0.682400  1.0  0.2384
  Ag  Ag130  1  0.378660  0.067600  0.182400  1.0  0.2384
  Ag  Ag131  1  0.682400  0.067600  0.878660  1.0  0.2383
  Ag  Ag132  1  0.182400  0.067600  0.378660  1.0  0.2383
  Ag  Ag133  1  0.567600  0.682400  0.378660  1.0  0.2383
  Ag  Ag134  1  0.567600  0.182400  0.878660  1.0  0.2383
  Ag  Ag135  1  0.067600  0.567600  0.371340  1.0  0.2382
  Ag  Ag136  1  0.067600  0.067600  0.871340  1.0  0.2382
  H  H137  1  0.186000  0.626400  0.088900  1.0  0.0469
  H  H138  1  0.189600  0.597600  0.035600  1.0  0.067
  H  H139  1  0.283000  0.529500  0.004600  1.0  0.0573
  H  H140  1  0.329400  0.515100  0.040000  1.0  0.0565
  H  H141  1  0.315200  0.588900  0.026600  1.0  0.0751
  H  H142  1  0.306800  0.597500  0.059600  1.0  0.0637
  H  H143  1  0.260200  0.586100  0.051200  1.0  0.0428
  H  H144  1  0.268300  0.579100  0.017800  1.0  0.0579
  H  H145  1  0.366600  0.576900  0.139000  1.0  0.0715
  H  H146  1  0.336300  0.589400  0.126500  1.0  0.0621
  H  H147  1  0.413400  0.596200  0.121000  1.0  0.0792
  H  H148  1  0.356500  0.511400  0.104200  1.0  0.085
  H  H149  1  0.377800  0.530100  0.125000  1.0  0.0575
  H  H150  1  0.405100  0.505500  0.044900  1.0  0.0609
  H  H151  1  0.373400  0.495300  0.056200  1.0  0.0515
  H  H152  1  0.426000  0.544400  0.106800  1.0  0.0483
  H  H153  1  0.435900  0.533400  0.074900  1.0  0.0564
  H  H154  1  0.186000  0.126400  0.588900  1.0  0.0469
  H  H155  1  0.189600  0.097600  0.535600  1.0  0.067
  H  H156  1  0.283000  0.029500  0.504600  1.0  0.0573
  H  H157  1  0.329400  0.015100  0.540000  1.0  0.0569
  H  H158  1  0.315200  0.088900  0.526600  1.0  0.0751
  H  H159  1  0.306800  0.097500  0.559600  1.0  0.0637
  H  H160  1  0.260200  0.086100  0.551200  1.0  0.0428
  H  H161  1  0.268300  0.079100  0.517800  1.0  0.0579
  H  H162  1  0.366600  0.076900  0.639000  1.0  0.0705
  H  H163  1  0.336300  0.089400  0.626500  1.0  0.0627
  H  H164  1  0.413400  0.096200  0.621000  1.0  0.0788
  H  H165  1  0.356500  0.011400  0.604200  1.0  0.085
  H  H166  1  0.377800  0.030100  0.625000  1.0  0.0575
  H  H167  1  0.405100  0.005500  0.544900  1.0  0.0609
  H  H168  1  0.373400  0.995300  0.556200  1.0  0.0515
  H  H169  1  0.426000  0.044400  0.606800  1.0  0.0483
  H  H170  1  0.435900  0.033400  0.574900  1.0  0.0564
  H  H171  1  0.686000  0.626400  0.588900  1.0  0.0461
  H  H172  1  0.689600  0.597600  0.535600  1.0  0.0669
  H  H173  1  0.783000  0.529500  0.504600  1.0  0.0573
  H  H174  1  0.829400  0.515100  0.540000  1.0  0.0569
  H  H175  1  0.815200  0.588900  0.526600  1.0  0.0751
  H  H176  1  0.806800  0.597500  0.559600  1.0  0.0637
  H  H177  1  0.760200  0.586100  0.551200  1.0  0.0428
  H  H178  1  0.768300  0.579100  0.517800  1.0  0.0579
  H  H179  1  0.866600  0.576900  0.639000  1.0  0.0705
  H  H180  1  0.836300  0.589400  0.626500  1.0  0.0627
  H  H181  1  0.913400  0.596200  0.621000  1.0  0.0792
  H  H182  1  0.856500  0.511400  0.604200  1.0  0.085
  H  H183  1  0.877800  0.530100  0.625000  1.0  0.0575
  H  H184  1  0.905100  0.505500  0.544900  1.0  0.0609
  H  H185  1  0.873400  0.495300  0.556200  1.0  0.0515
  H  H186  1  0.926000  0.544400  0.606800  1.0  0.0483
  H  H187  1  0.935900  0.533400  0.574900  1.0  0.0564
  H  H188  1  0.686000  0.126400  0.088900  1.0  0.0461
  H  H189  1  0.689600  0.097600  0.035600  1.0  0.067
  H  H190  1  0.783000  0.029500  0.004600  1.0  0.0583
  H  H191  1  0.829400  0.015100  0.040000  1.0  0.0569
  H  H192  1  0.815200  0.088900  0.026600  1.0  0.0751
  H  H193  1  0.806800  0.097500  0.059600  1.0  0.0637
  H  H194  1  0.760200  0.086100  0.051200  1.0  0.0428
  H  H195  1  0.768300  0.079100  0.017800  1.0  0.0579
  H  H196  1  0.866600  0.076900  0.139000  1.0  0.0705
  H  H197  1  0.836300  0.089400  0.126500  1.0  0.0627
  H  H198  1  0.913400  0.096200  0.121000  1.0  0.0788
  H  H199  1  0.856500  0.011400  0.104200  1.0  0.085
  H  H200  1  0.877800  0.030100  0.125000  1.0  0.0575
  H  H201  1  0.905100  0.005500  0.044900  1.0  0.0609
  H  H202  1  0.873400  0.995300  0.056200  1.0  0.0515
  H  H203  1  0.926000  0.044400  0.106800  1.0  0.0483
  H  H204  1  0.935900  0.033400  0.074900  1.0  0.0564
  H  H205  1  0.564000  0.623600  0.588900  1.0  0.0471
  H  H206  1  0.560400  0.652400  0.535600  1.0  0.0669
  H  H207  1  0.467000  0.720500  0.504600  1.0  0.0576
  H  H208  1  0.420600  0.734900  0.540000  1.0  0.0563
  H  H209  1  0.434800  0.661100  0.526600  1.0  0.0761
  H  H210  1  0.443200  0.652500  0.559600  1.0  0.0638
  H  H211  1  0.489800  0.663900  0.551200  1.0  0.0431
  H  H212  1  0.481700  0.670900  0.517800  1.0  0.0568
  H  H213  1  0.383400  0.673100  0.639000  1.0  0.0688
  H  H214  1  0.413700  0.660600  0.626500  1.0  0.0632
  H  H215  1  0.336600  0.653800  0.621000  1.0  0.0764
  H  H216  1  0.393500  0.738600  0.604200  1.0  0.0852
  H  H217  1  0.372200  0.719900  0.625000  1.0  0.0585
  H  H218  1  0.344900  0.744500  0.544900  1.0  0.0592
  H  H219  1  0.376600  0.754700  0.556200  1.0  0.0494
  H  H220  1  0.324000  0.705600  0.606800  1.0  0.0494
  H  H221  1  0.314100  0.716600  0.574900  1.0  0.054
  H  H222  1  0.564000  0.123600  0.088900  1.0  0.0436
  H  H223  1  0.560400  0.152400  0.035600  1.0  0.0692
  H  H224  1  0.467000  0.220500  0.004600  1.0  0.0576
  H  H225  1  0.420600  0.234900  0.040000  1.0  0.0563
  H  H226  1  0.434800  0.161100  0.026600  1.0  0.0761
  H  H227  1  0.443200  0.152500  0.059600  1.0  0.0638
  H  H228  1  0.489800  0.163900  0.051200  1.0  0.0431
  H  H229  1  0.481700  0.170900  0.017800  1.0  0.0568
  H  H230  1  0.383400  0.173100  0.139000  1.0  0.0677
  H  H231  1  0.413700  0.160600  0.126500  1.0  0.0632
  H  H232  1  0.336600  0.153800  0.121000  1.0  0.0759
  H  H233  1  0.393500  0.238600  0.104200  1.0  0.0852
  H  H234  1  0.372200  0.219900  0.125000  1.0  0.0585
  H  H235  1  0.344900  0.244500  0.044900  1.0  0.0592
  H  H236  1  0.376600  0.254700  0.056200  1.0  0.0494
  H  H237  1  0.324000  0.205600  0.106800  1.0  0.0494
  H  H238  1  0.314100  0.216600  0.074900  1.0  0.054
  H  H239  1  0.064000  0.623600  0.088900  1.0  0.0468
  H  H240  1  0.060400  0.652400  0.035600  1.0  0.0641
  H  H241  1  0.967000  0.720500  0.004600  1.0  0.0583
  H  H242  1  0.920600  0.734900  0.040000  1.0  0.0567
  H  H243  1  0.934800  0.661100  0.026600  1.0  0.0761
  H  H244  1  0.943200  0.652500  0.059600  1.0  0.0638
  H  H245  1  0.989800  0.663900  0.051200  1.0  0.0431
  H  H246  1  0.981700  0.670900  0.017800  1.0  0.0568
  H  H247  1  0.883400  0.673100  0.139000  1.0  0.0688
  H  H248  1  0.913700  0.660600  0.126500  1.0  0.06
  H  H249  1  0.836600  0.653800  0.121000  1.0  0.0759
  H  H250  1  0.893500  0.738600  0.104200  1.0  0.0852
  H  H251  1  0.872200  0.719900  0.125000  1.0  0.0585
  H  H252  1  0.844900  0.744500  0.044900  1.0  0.0592
  H  H253  1  0.876600  0.754700  0.056200  1.0  0.0494
  H  H254  1  0.824000  0.705600  0.106800  1.0  0.0494
  H  H255  1  0.814100  0.716600  0.074900  1.0  0.054
  H  H256  1  0.064000  0.123600  0.588900  1.0  0.0467
  H  H257  1  0.060400  0.152400  0.535600  1.0  0.067
  H  H258  1  0.967000  0.220500  0.504600  1.0  0.0576
  H  H259  1  0.920600  0.234900  0.540000  1.0  0.0567
  H  H260  1  0.934800  0.161100  0.526600  1.0  0.0761
  H  H261  1  0.943200  0.152500  0.559600  1.0  0.0638
  H  H262  1  0.989800  0.163900  0.551200  1.0  0.0431
  H  H263  1  0.981700  0.170900  0.517800  1.0  0.0568
  H  H264  1  0.883400  0.173100  0.639000  1.0  0.0677
  H  H265  1  0.913700  0.160600  0.626500  1.0  0.0632
  H  H266  1  0.836600  0.153800  0.621000  1.0  0.0759
  H  H267  1  0.893500  0.238600  0.604200  1.0  0.0852
  H  H268  1  0.872200  0.219900  0.625000  1.0  0.0585
  H  H269  1  0.844900  0.244500  0.544900  1.0  0.0592
  H  H270  1  0.876600  0.254700  0.556200  1.0  0.0494
  H  H271  1  0.824000  0.205600  0.606800  1.0  0.0494
  H  H272  1  0.814100  0.216600  0.574900  1.0  0.054
  H  H273  1  0.064000  0.126400  0.661100  1.0  0.0467
  H  H274  1  0.060400  0.097600  0.714400  1.0  0.0657
  H  H275  1  0.967000  0.029500  0.745400  1.0  0.0573
  H  H276  1  0.920600  0.015100  0.710000  1.0  0.0564
  H  H277  1  0.934800  0.088900  0.723400  1.0  0.0746
  H  H278  1  0.943200  0.097500  0.690400  1.0  0.0633
  H  H279  1  0.989800  0.086100  0.698800  1.0  0.0427
  H  H280  1  0.981700  0.079100  0.732200  1.0  0.0566
  H  H281  1  0.883400  0.076900  0.611000  1.0  0.0688
  H  H282  1  0.913700  0.089400  0.623500  1.0  0.0628
  H  H283  1  0.836600  0.096200  0.629000  1.0  0.0755
  H  H284  1  0.893500  0.011400  0.645800  1.0  0.0869
  H  H285  1  0.872200  0.030100  0.625000  1.0  0.0573
  H  H286  1  0.844900  0.005500  0.705100  1.0  0.06
  H  H287  1  0.876600  0.995300  0.693800  1.0  0.0509
  H  H288  1  0.824000  0.044400  0.643200  1.0  0.0483
  H  H289  1  0.814100  0.033400  0.675100  1.0  0.053
  H  H290  1  0.064000  0.626400  0.161100  1.0  0.0467
  H  H291  1  0.060400  0.597600  0.214400  1.0  0.0656
  H  H292  1  0.967000  0.529500  0.245400  1.0  0.0573
  H  H293  1  0.920600  0.515100  0.210000  1.0  0.0568
  H  H294  1  0.934800  0.588900  0.223400  1.0  0.0746
  H  H295  1  0.943200  0.597500  0.190400  1.0  0.0633
  H  H296  1  0.989800  0.586100  0.198800  1.0  0.0427
  H  H297  1  0.981700  0.579100  0.232200  1.0  0.0566
  H  H298  1  0.883400  0.576900  0.111000  1.0  0.0701
  H  H299  1  0.913700  0.589400  0.123500  1.0  0.0591
  H  H300  1  0.836600  0.596200  0.129000  1.0  0.076
  H  H301  1  0.893500  0.511400  0.145800  1.0  0.0869
  H  H302  1  0.872200  0.530100  0.125000  1.0  0.0573
  H  H303  1  0.844900  0.505500  0.205100  1.0  0.06
  H  H304  1  0.876600  0.495300  0.193800  1.0  0.0509
  H  H305  1  0.824000  0.544400  0.143200  1.0  0.0483
  H  H306  1  0.814100  0.533400  0.175100  1.0  0.053
  H  H307  1  0.564000  0.126400  0.161100  1.0  0.0478
  H  H308  1  0.560400  0.097600  0.214400  1.0  0.0657
  H  H309  1  0.467000  0.029500  0.245400  1.0  0.0581
  H  H310  1  0.420600  0.015100  0.210000  1.0  0.0568
  H  H311  1  0.434800  0.088900  0.223400  1.0  0.0746
  H  H312  1  0.443200  0.097500  0.190400  1.0  0.0633
  H  H313  1  0.489800  0.086100  0.198800  1.0  0.0427
  H  H314  1  0.481700  0.079100  0.232200  1.0  0.0566
  H  H315  1  0.383400  0.076900  0.111000  1.0  0.0688
  H  H316  1  0.413700  0.089400  0.123500  1.0  0.0628
  H  H317  1  0.336600  0.096200  0.129000  1.0  0.0755
  H  H318  1  0.393500  0.011400  0.145800  1.0  0.0869
  H  H319  1  0.372200  0.030100  0.125000  1.0  0.0573
  H  H320  1  0.344900  0.005500  0.205100  1.0  0.06
  H  H321  1  0.376600  0.995300  0.193800  1.0  0.0509
  H  H322  1  0.324000  0.044400  0.143200  1.0  0.0483
  H  H323  1  0.314100  0.033400  0.175100  1.0  0.053
  H  H324  1  0.564000  0.626400  0.661100  1.0  0.0464
  H  H325  1  0.560400  0.597600  0.714400  1.0  0.0656
  H  H326  1  0.467000  0.529500  0.745400  1.0  0.0573
  H  H327  1  0.420600  0.515100  0.710000  1.0  0.0564
  H  H328  1  0.434800  0.588900  0.723400  1.0  0.0746
  H  H329  1  0.443200  0.597500  0.690400  1.0  0.0633
  H  H330  1  0.489800  0.586100  0.698800  1.0  0.0427
  H  H331  1  0.481700  0.579100  0.732200  1.0  0.0566
  H  H332  1  0.383400  0.576900  0.611000  1.0  0.0701
  H  H333  1  0.413700  0.589400  0.623500  1.0  0.0628
  H  H334  1  0.336600  0.596200  0.629000  1.0  0.0755
  H  H335  1  0.393500  0.511400  0.645800  1.0  0.0869
  H  H336  1  0.372200  0.530100  0.625000  1.0  0.0573
  H  H337  1  0.344900  0.505500  0.705100  1.0  0.06
  H  H338  1  0.376600  0.495300  0.693800  1.0  0.0509
  H  H339  1  0.324000  0.544400  0.643200  1.0  0.0483
  H  H340  1  0.314100  0.533400  0.675100  1.0  0.053
  H  H341  1  0.686000  0.123600  0.161100  1.0  0.0463
  H  H342  1  0.689600  0.152400  0.214400  1.0  0.067
  H  H343  1  0.783000  0.220500  0.245400  1.0  0.058
  H  H344  1  0.829400  0.234900  0.210000  1.0  0.0566
  H  H345  1  0.815200  0.161100  0.223400  1.0  0.0756
  H  H346  1  0.806800  0.152500  0.190400  1.0  0.0628
  H  H347  1  0.760200  0.163900  0.198800  1.0  0.0429
  H  H348  1  0.768300  0.170900  0.232200  1.0  0.0579
  H  H349  1  0.866600  0.173100  0.111000  1.0  0.0689
  H  H350  1  0.836300  0.160600  0.123500  1.0  0.0625
  H  H351  1  0.913400  0.153800  0.129000  1.0  0.0782
  H  H352  1  0.856500  0.238600  0.145800  1.0  0.0867
  H  H353  1  0.877800  0.219900  0.125000  1.0  0.0569
  H  H354  1  0.905100  0.244500  0.205100  1.0  0.0598
  H  H355  1  0.873400  0.254700  0.193800  1.0  0.0521
  H  H356  1  0.926000  0.205600  0.143200  1.0  0.0485
  H  H357  1  0.935900  0.216600  0.175100  1.0  0.055
  H  H358  1  0.686000  0.623600  0.661100  1.0  0.0463
  H  H359  1  0.689600  0.652400  0.714400  1.0  0.067
  H  H360  1  0.783000  0.720500  0.745400  1.0  0.058
  H  H361  1  0.829400  0.734900  0.710000  1.0  0.0566
  H  H362  1  0.815200  0.661100  0.723400  1.0  0.0756
  H  H363  1  0.806800  0.652500  0.690400  1.0  0.0628
  H  H364  1  0.760200  0.663900  0.698800  1.0  0.0429
  H  H365  1  0.768300  0.670900  0.732200  1.0  0.0579
  H  H366  1  0.866600  0.673100  0.611000  1.0  0.0701
  H  H367  1  0.836300  0.660600  0.623500  1.0  0.0592
  H  H368  1  0.913400  0.653800  0.629000  1.0  0.0782
  H  H369  1  0.856500  0.738600  0.645800  1.0  0.0867
  H  H370  1  0.877800  0.719900  0.625000  1.0  0.0569
  H  H371  1  0.905100  0.744500  0.705100  1.0  0.0598
  H  H372  1  0.873400  0.754700  0.693800  1.0  0.0521
  H  H373  1  0.926000  0.705600  0.643200  1.0  0.0485
  H  H374  1  0.935900  0.716600  0.675100  1.0  0.055
  H  H375  1  0.186000  0.123600  0.661100  1.0  0.0459
  H  H376  1  0.189600  0.152400  0.714400  1.0  0.067
  H  H377  1  0.283000  0.220500  0.745400  1.0  0.0568
  H  H378  1  0.329400  0.234900  0.710000  1.0  0.0562
  H  H379  1  0.315200  0.161100  0.723400  1.0  0.0756
  H  H380  1  0.306800  0.152500  0.690400  1.0  0.0628
  H  H381  1  0.260200  0.163900  0.698800  1.0  0.0429
  H  H382  1  0.268300  0.170900  0.732200  1.0  0.0579
  H  H383  1  0.366600  0.173100  0.611000  1.0  0.0689
  H  H384  1  0.336300  0.160600  0.623500  1.0  0.0625
  H  H385  1  0.413400  0.153800  0.629000  1.0  0.0782
  H  H386  1  0.356500  0.238600  0.645800  1.0  0.0867
  H  H387  1  0.377800  0.219900  0.625000  1.0  0.0569
  H  H388  1  0.405100  0.244500  0.705100  1.0  0.0598
  H  H389  1  0.373400  0.254700  0.693800  1.0  0.0521
  H  H390  1  0.426000  0.205600  0.643200  1.0  0.0485
  H  H391  1  0.435900  0.216600  0.675100  1.0  0.055
  H  H392  1  0.186000  0.623600  0.161100  1.0  0.0458
  H  H393  1  0.189600  0.652400  0.214400  1.0  0.067
  H  H394  1  0.283000  0.720500  0.245400  1.0  0.058
  H  H395  1  0.329400  0.734900  0.210000  1.0  0.0566
  H  H396  1  0.315200  0.661100  0.223400  1.0  0.0756
  H  H397  1  0.306800  0.652500  0.190400  1.0  0.0628
  H  H398  1  0.260200  0.663900  0.198800  1.0  0.0429
  H  H399  1  0.268300  0.670900  0.232200  1.0  0.0579
  H  H400  1  0.366600  0.673100  0.111000  1.0  0.0701
  H  H401  1  0.336300  0.660600  0.123500  1.0  0.0592
  H  H402  1  0.413400  0.653800  0.129000  1.0  0.0782
  H  H403  1  0.356500  0.738600  0.145800  1.0  0.0867
  H  H404  1  0.377800  0.719900  0.125000  1.0  0.0569
  H  H405  1  0.405100  0.744500  0.205100  1.0  0.0598
  H  H406  1  0.373400  0.754700  0.193800  1.0  0.0521
  H  H407  1  0.426000  0.705600  0.143200  1.0  0.0485
  H  H408  1  0.435900  0.716600  0.175100  1.0  0.055
  H  H409  1  0.088900  0.186000  0.626400  1.0  0.0452
  H  H410  1  0.035600  0.189600  0.597600  1.0  0.0654
  H  H411  1  0.004600  0.283000  0.529500  1.0  0.0505
  H  H412  1  0.040000  0.329400  0.515100  1.0  0.0546
  H  H413  1  0.026600  0.315200  0.588900  1.0  0.0729
  H  H414  1  0.059600  0.306800  0.597500  1.0  0.0617
  H  H415  1  0.051200  0.260200  0.586100  1.0  0.043
  H  H416  1  0.017800  0.268300  0.579100  1.0  0.0507
  H  H417  1  0.139000  0.366600  0.576900  1.0  0.0727
  H  H418  1  0.126500  0.336300  0.589400  1.0  0.0647
  H  H419  1  0.121000  0.413400  0.596200  1.0  0.079
  H  H420  1  0.104200  0.356500  0.511400  1.0  0.0832
  H  H421  1  0.125000  0.377800  0.530100  1.0  0.0582
  H  H422  1  0.044900  0.405100  0.505500  1.0  0.0531
  H  H423  1  0.056200  0.373400  0.495300  1.0  0.0535
  H  H424  1  0.106800  0.426000  0.544400  1.0  0.0518
  H  H425  1  0.074900  0.435900  0.533400  1.0  0.0554
  H  H426  1  0.088900  0.686000  0.126400  1.0  0.0446
  H  H427  1  0.035600  0.689600  0.097600  1.0  0.0654
  H  H428  1  0.004600  0.783000  0.029500  1.0  0.0509
  H  H429  1  0.040000  0.829400  0.015100  1.0  0.0546
  H  H430  1  0.026600  0.815200  0.088900  1.0  0.0729
  H  H431  1  0.059600  0.806800  0.097500  1.0  0.0617
  H  H432  1  0.051200  0.760200  0.086100  1.0  0.043
  H  H433  1  0.017800  0.768300  0.079100  1.0  0.0507
  H  H434  1  0.139000  0.866600  0.076900  1.0  0.0713
  H  H435  1  0.126500  0.836300  0.089400  1.0  0.0678
  H  H436  1  0.121000  0.913400  0.096200  1.0  0.079
  H  H437  1  0.104200  0.856500  0.011400  1.0  0.0832
  H  H438  1  0.125000  0.877800  0.030100  1.0  0.0582
  H  H439  1  0.044900  0.905100  0.005500  1.0  0.0531
  H  H440  1  0.056200  0.873400  0.995300  1.0  0.0535
  H  H441  1  0.106800  0.926000  0.044400  1.0  0.0518
  H  H442  1  0.074900  0.935900  0.033400  1.0  0.0554
  H  H443  1  0.588900  0.186000  0.126400  1.0  0.0452
  H  H444  1  0.535600  0.189600  0.097600  1.0  0.0654
  H  H445  1  0.504600  0.283000  0.029500  1.0  0.0505
  H  H446  1  0.540000  0.329400  0.015100  1.0  0.0546
  H  H447  1  0.526600  0.315200  0.088900  1.0  0.0729
  H  H448  1  0.559600  0.306800  0.097500  1.0  0.0617
  H  H449  1  0.551200  0.260200  0.086100  1.0  0.043
  H  H450  1  0.517800  0.268300  0.079100  1.0  0.0507
  H  H451  1  0.639000  0.366600  0.076900  1.0  0.0713
  H  H452  1  0.626500  0.336300  0.089400  1.0  0.0678
  H  H453  1  0.621000  0.413400  0.096200  1.0  0.0783
  H  H454  1  0.604200  0.356500  0.011400  1.0  0.0832
  H  H455  1  0.625000  0.377800  0.030100  1.0  0.0582
  H  H456  1  0.544900  0.405100  0.005500  1.0  0.0531
  H  H457  1  0.556200  0.373400  0.995300  1.0  0.0535
  H  H458  1  0.606800  0.426000  0.044400  1.0  0.0518
  H  H459  1  0.574900  0.435900  0.033400  1.0  0.0554
  H  H460  1  0.588900  0.686000  0.626400  1.0  0.0441
  H  H461  1  0.535600  0.689600  0.597600  1.0  0.0654
  H  H462  1  0.504600  0.783000  0.529500  1.0  0.0505
  H  H463  1  0.540000  0.829400  0.515100  1.0  0.0546
  H  H464  1  0.526600  0.815200  0.588900  1.0  0.0729
  H  H465  1  0.559600  0.806800  0.597500  1.0  0.0617
  H  H466  1  0.551200  0.760200  0.586100  1.0  0.043
  H  H467  1  0.517800  0.768300  0.579100  1.0  0.0507
  H  H468  1  0.639000  0.866600  0.576900  1.0  0.0713
  H  H469  1  0.626500  0.836300  0.589400  1.0  0.0678
  H  H470  1  0.621000  0.913400  0.596200  1.0  0.079
  H  H471  1  0.604200  0.856500  0.511400  1.0  0.0832
  H  H472  1  0.625000  0.877800  0.530100  1.0  0.0582
  H  H473  1  0.544900  0.905100  0.505500  1.0  0.0531
  H  H474  1  0.556200  0.873400  0.495300  1.0  0.0535
  H  H475  1  0.606800  0.926000  0.544400  1.0  0.0518
  H  H476  1  0.574900  0.935900  0.533400  1.0  0.0554
  H  H477  1  0.588900  0.564000  0.623600  1.0  0.0442
  H  H478  1  0.535600  0.560400  0.652400  1.0  0.0646
  H  H479  1  0.504600  0.467000  0.720500  1.0  0.0521
  H  H480  1  0.540000  0.420600  0.734900  1.0  0.0564
  H  H481  1  0.526600  0.434800  0.661100  1.0  0.0741
  H  H482  1  0.559600  0.443200  0.652500  1.0  0.0605
  H  H483  1  0.551200  0.489800  0.663900  1.0  0.042
  H  H484  1  0.517800  0.481700  0.670900  1.0  0.0505
  H  H485  1  0.639000  0.383400  0.673100  1.0  0.0705
  H  H486  1  0.626500  0.413700  0.660600  1.0  0.0673
  H  H487  1  0.621000  0.336600  0.653800  1.0  0.0786
  H  H488  1  0.604200  0.393500  0.738600  1.0  0.0831
  H  H489  1  0.625000  0.372200  0.719900  1.0  0.0571
  H  H490  1  0.544900  0.344900  0.744500  1.0  0.0534
  H  H491  1  0.556200  0.376600  0.754700  1.0  0.0552
  H  H492  1  0.606800  0.324000  0.705600  1.0  0.049
  H  H493  1  0.574900  0.314100  0.716600  1.0  0.0552
  H  H494  1  0.588900  0.064000  0.123600  1.0  0.0439
  H  H495  1  0.535600  0.060400  0.152400  1.0  0.0667
  H  H496  1  0.504600  0.967000  0.220500  1.0  0.0515
  H  H497  1  0.540000  0.920600  0.234900  1.0  0.0564
  H  H498  1  0.526600  0.934800  0.161100  1.0  0.0741
  H  H499  1  0.559600  0.943200  0.152500  1.0  0.0605
  H  H500  1  0.551200  0.989800  0.163900  1.0  0.042
  H  H501  1  0.517800  0.981700  0.170900  1.0  0.0505
  H  H502  1  0.639000  0.883400  0.173100  1.0  0.0694
  H  H503  1  0.626500  0.913700  0.160600  1.0  0.0673
  H  H504  1  0.621000  0.836600  0.153800  1.0  0.0783
  H  H505  1  0.604200  0.893500  0.238600  1.0  0.0831
  H  H506  1  0.625000  0.872200  0.219900  1.0  0.0571
  H  H507  1  0.544900  0.844900  0.244500  1.0  0.0534
  H  H508  1  0.556200  0.876600  0.254700  1.0  0.0552
  H  H509  1  0.606800  0.824000  0.205600  1.0  0.049
  H  H510  1  0.574900  0.814100  0.216600  1.0  0.0552
  H  H511  1  0.088900  0.564000  0.123600  1.0  0.0404
  H  H512  1  0.035600  0.560400  0.152400  1.0  0.068
  H  H513  1  0.004600  0.467000  0.220500  1.0  0.0515
  H  H514  1  0.040000  0.420600  0.234900  1.0  0.0558
  H  H515  1  0.026600  0.434800  0.161100  1.0  0.0741
  H  H516  1  0.059600  0.443200  0.152500  1.0  0.0605
  H  H517  1  0.051200  0.489800  0.163900  1.0  0.042
  H  H518  1  0.017800  0.481700  0.170900  1.0  0.0505
  H  H519  1  0.139000  0.383400  0.173100  1.0  0.0694
  H  H520  1  0.126500  0.413700  0.160600  1.0  0.0667
  H  H521  1  0.121000  0.336600  0.153800  1.0  0.0783
  H  H522  1  0.104200  0.393500  0.238600  1.0  0.0831
  H  H523  1  0.125000  0.372200  0.219900  1.0  0.0571
  H  H524  1  0.044900  0.344900  0.244500  1.0  0.0534
  H  H525  1  0.056200  0.376600  0.254700  1.0  0.0552
  H  H526  1  0.106800  0.324000  0.205600  1.0  0.049
  H  H527  1  0.074900  0.314100  0.216600  1.0  0.0552
  H  H528  1  0.088900  0.064000  0.623600  1.0  0.044
  H  H529  1  0.035600  0.060400  0.652400  1.0  0.0632
  H  H530  1  0.004600  0.967000  0.720500  1.0  0.0521
  H  H531  1  0.040000  0.920600  0.734900  1.0  0.0564
  H  H532  1  0.026600  0.934800  0.661100  1.0  0.0741
  H  H533  1  0.059600  0.943200  0.652500  1.0  0.0605
  H  H534  1  0.051200  0.989800  0.663900  1.0  0.042
  H  H535  1  0.017800  0.981700  0.670900  1.0  0.0505
  H  H536  1  0.139000  0.883400  0.673100  1.0  0.0705
  H  H537  1  0.126500  0.913700  0.660600  1.0  0.0637
  H  H538  1  0.121000  0.836600  0.653800  1.0  0.0783
  H  H539  1  0.104200  0.893500  0.738600  1.0  0.0831
  H  H540  1  0.125000  0.872200  0.719900  1.0  0.0571
  H  H541  1  0.044900  0.844900  0.744500  1.0  0.0534
  H  H542  1  0.056200  0.876600  0.754700  1.0  0.0552
  H  H543  1  0.106800  0.824000  0.705600  1.0  0.049
  H  H544  1  0.074900  0.814100  0.716600  1.0  0.0552
  H  H545  1  0.661100  0.064000  0.126400  1.0  0.0461
  H  H546  1  0.714400  0.060400  0.097600  1.0  0.0638
  H  H547  1  0.745400  0.967000  0.029500  1.0  0.0506
  H  H548  1  0.710000  0.920600  0.015100  1.0  0.055
  H  H549  1  0.723400  0.934800  0.088900  1.0  0.0722
  H  H550  1  0.690400  0.943200  0.097500  1.0  0.0621
  H  H551  1  0.698800  0.989800  0.086100  1.0  0.0413
  H  H552  1  0.732200  0.981700  0.079100  1.0  0.0495
  H  H553  1  0.611000  0.883400  0.076900  1.0  0.0694
  H  H554  1  0.623500  0.913700  0.089400  1.0  0.0663
  H  H555  1  0.629000  0.836600  0.096200  1.0  0.0775
  H  H556  1  0.645800  0.893500  0.011400  1.0  0.0845
  H  H557  1  0.625000  0.872200  0.030100  1.0  0.0579
  H  H558  1  0.705100  0.844900  0.005500  1.0  0.0551
  H  H559  1  0.693800  0.876600  0.995300  1.0  0.0554
  H  H560  1  0.643200  0.824000  0.044400  1.0  0.0514
  H  H561  1  0.675100  0.814100  0.033400  1.0  0.0571
  H  H562  1  0.661100  0.564000  0.626400  1.0  0.0461
  H  H563  1  0.714400  0.560400  0.597600  1.0  0.0633
  H  H564  1  0.745400  0.467000  0.529500  1.0  0.0506
  H  H565  1  0.710000  0.420600  0.515100  1.0  0.055
  H  H566  1  0.723400  0.434800  0.588900  1.0  0.0722
  H  H567  1  0.690400  0.443200  0.597500  1.0  0.0621
  H  H568  1  0.698800  0.489800  0.586100  1.0  0.0413
  H  H569  1  0.732200  0.481700  0.579100  1.0  0.0495
  H  H570  1  0.611000  0.383400  0.576900  1.0  0.0705
  H  H571  1  0.623500  0.413700  0.589400  1.0  0.0663
  H  H572  1  0.629000  0.336600  0.596200  1.0  0.0775
  H  H573  1  0.645800  0.393500  0.511400  1.0  0.0845
  H  H574  1  0.625000  0.372200  0.530100  1.0  0.0579
  H  H575  1  0.705100  0.344900  0.505500  1.0  0.0551
  H  H576  1  0.693800  0.376600  0.495300  1.0  0.0554
  H  H577  1  0.643200  0.324000  0.544400  1.0  0.0514
  H  H578  1  0.675100  0.314100  0.533400  1.0  0.0571
  H  H579  1  0.161100  0.064000  0.626400  1.0  0.0456
  H  H580  1  0.214400  0.060400  0.597600  1.0  0.0638
  H  H581  1  0.245400  0.967000  0.529500  1.0  0.0506
  H  H582  1  0.210000  0.920600  0.515100  1.0  0.0555
  H  H583  1  0.223400  0.934800  0.588900  1.0  0.0722
  H  H584  1  0.190400  0.943200  0.597500  1.0  0.0621
  H  H585  1  0.198800  0.989800  0.586100  1.0  0.0413
  H  H586  1  0.232200  0.981700  0.579100  1.0  0.0495
  H  H587  1  0.111000  0.883400  0.576900  1.0  0.0705
  H  H588  1  0.123500  0.913700  0.589400  1.0  0.0663
  H  H589  1  0.129000  0.836600  0.596200  1.0  0.0783
  H  H590  1  0.145800  0.893500  0.511400  1.0  0.0845
  H  H591  1  0.125000  0.872200  0.530100  1.0  0.0579
  H  H592  1  0.205100  0.844900  0.505500  1.0  0.0551
  H  H593  1  0.193800  0.876600  0.495300  1.0  0.0554
  H  H594  1  0.143200  0.824000  0.544400  1.0  0.0514
  H  H595  1  0.175100  0.814100  0.533400  1.0  0.0571
  H  H596  1  0.161100  0.564000  0.126400  1.0  0.0456
  H  H597  1  0.214400  0.560400  0.097600  1.0  0.0638
  H  H598  1  0.245400  0.467000  0.029500  1.0  0.0514
  H  H599  1  0.210000  0.420600  0.015100  1.0  0.0555
  H  H600  1  0.223400  0.434800  0.088900  1.0  0.0722
  H  H601  1  0.190400  0.443200  0.097500  1.0  0.0621
  H  H602  1  0.198800  0.489800  0.086100  1.0  0.0413
  H  H603  1  0.232200  0.481700  0.079100  1.0  0.0495
  H  H604  1  0.111000  0.383400  0.076900  1.0  0.0694
  H  H605  1  0.123500  0.413700  0.089400  1.0  0.0663
  H  H606  1  0.129000  0.336600  0.096200  1.0  0.0783
  H  H607  1  0.145800  0.393500  0.011400  1.0  0.0845
  H  H608  1  0.125000  0.372200  0.030100  1.0  0.0579
  H  H609  1  0.205100  0.344900  0.005500  1.0  0.0551
  H  H610  1  0.193800  0.376600  0.995300  1.0  0.0554
  H  H611  1  0.143200  0.324000  0.044400  1.0  0.0514
  H  H612  1  0.175100  0.314100  0.033400  1.0  0.0571
  H  H613  1  0.161100  0.686000  0.123600  1.0  0.0459
  H  H614  1  0.214400  0.689600  0.152400  1.0  0.0645
  H  H615  1  0.245400  0.783000  0.220500  1.0  0.0509
  H  H616  1  0.210000  0.829400  0.234900  1.0  0.0555
  H  H617  1  0.223400  0.815200  0.161100  1.0  0.0741
  H  H618  1  0.190400  0.806800  0.152500  1.0  0.0619
  H  H619  1  0.198800  0.760200  0.163900  1.0  0.0412
  H  H620  1  0.232200  0.768300  0.170900  1.0  0.0511
  H  H621  1  0.111000  0.866600  0.173100  1.0  0.0691
  H  H622  1  0.123500  0.836300  0.160600  1.0  0.0679
  H  H623  1  0.129000  0.913400  0.153800  1.0  0.0768
  H  H624  1  0.145800  0.856500  0.238600  1.0  0.0827
  H  H625  1  0.125000  0.877800  0.219900  1.0  0.0562
  H  H626  1  0.205100  0.905100  0.244500  1.0  0.0554
  H  H627  1  0.193800  0.873400  0.254700  1.0  0.0564
  H  H628  1  0.143200  0.926000  0.205600  1.0  0.0513
  H  H629  1  0.175100  0.935900  0.216600  1.0  0.0582
  H  H630  1  0.161100  0.186000  0.623600  1.0  0.0459
  H  H631  1  0.214400  0.189600  0.652400  1.0  0.0645
  H  H632  1  0.245400  0.283000  0.720500  1.0  0.0509
  H  H633  1  0.210000  0.329400  0.734900  1.0  0.0555
  H  H634  1  0.223400  0.315200  0.661100  1.0  0.0741
  H  H635  1  0.190400  0.306800  0.652500  1.0  0.0619
  H  H636  1  0.198800  0.260200  0.663900  1.0  0.0412
  H  H637  1  0.232200  0.268300  0.670900  1.0  0.0511
  H  H638  1  0.111000  0.366600  0.673100  1.0  0.0704
  H  H639  1  0.123500  0.336300  0.660600  1.0  0.0647
  H  H640  1  0.129000  0.413400  0.653800  1.0  0.0768
  H  H641  1  0.145800  0.356500  0.738600  1.0  0.0827
  H  H642  1  0.125000  0.377800  0.719900  1.0  0.0562
  H  H643  1  0.205100  0.405100  0.744500  1.0  0.0554
  H  H644  1  0.193800  0.373400  0.754700  1.0  0.0564
  H  H645  1  0.143200  0.426000  0.705600  1.0  0.0513
  H  H646  1  0.175100  0.435900  0.716600  1.0  0.0582
  H  H647  1  0.661100  0.686000  0.623600  1.0  0.0452
  H  H648  1  0.714400  0.689600  0.652400  1.0  0.065
  H  H649  1  0.745400  0.783000  0.720500  1.0  0.0509
  H  H650  1  0.710000  0.829400  0.734900  1.0  0.0555
  H  H651  1  0.723400  0.815200  0.661100  1.0  0.0741
  H  H652  1  0.690400  0.806800  0.652500  1.0  0.0619
  H  H653  1  0.698800  0.760200  0.663900  1.0  0.0412
  H  H654  1  0.732200  0.768300  0.670900  1.0  0.0511
  H  H655  1  0.611000  0.866600  0.673100  1.0  0.0704
  H  H656  1  0.623500  0.836300  0.660600  1.0  0.0648
  H  H657  1  0.629000  0.913400  0.653800  1.0  0.0768
  H  H658  1  0.645800  0.856500  0.738600  1.0  0.0827
  H  H659  1  0.625000  0.877800  0.719900  1.0  0.0562
  H  H660  1  0.705100  0.905100  0.744500  1.0  0.0554
  H  H661  1  0.693800  0.873400  0.754700  1.0  0.0564
  H  H662  1  0.643200  0.926000  0.705600  1.0  0.0513
  H  H663  1  0.675100  0.935900  0.716600  1.0  0.0582
  H  H664  1  0.661100  0.186000  0.123600  1.0  0.0449
  H  H665  1  0.714400  0.189600  0.152400  1.0  0.065
  H  H666  1  0.745400  0.283000  0.220500  1.0  0.0499
  H  H667  1  0.710000  0.329400  0.234900  1.0  0.055
  H  H668  1  0.723400  0.315200  0.161100  1.0  0.0741
  H  H669  1  0.690400  0.306800  0.152500  1.0  0.0619
  H  H670  1  0.698800  0.260200  0.163900  1.0  0.0412
  H  H671  1  0.732200  0.268300  0.170900  1.0  0.0511
  H  H672  1  0.611000  0.366600  0.173100  1.0  0.0691
  H  H673  1  0.623500  0.336300  0.160600  1.0  0.0686
  H  H674  1  0.629000  0.413400  0.153800  1.0  0.0768
  H  H675  1  0.645800  0.356500  0.238600  1.0  0.0827
  H  H676  1  0.625000  0.377800  0.219900  1.0  0.0562
  H  H677  1  0.705100  0.405100  0.244500  1.0  0.0554
  H  H678  1  0.693800  0.373400  0.254700  1.0  0.0564
  H  H679  1  0.643200  0.426000  0.205600  1.0  0.0513
  H  H680  1  0.675100  0.435900  0.216600  1.0  0.0582
  H  H681  1  0.626400  0.088900  0.186000  1.0  0.0441
  H  H682  1  0.597600  0.035600  0.189600  1.0  0.0668
  H  H683  1  0.529500  0.004600  0.283000  1.0  0.057
  H  H684  1  0.515100  0.040000  0.329400  1.0  0.0505
  H  H685  1  0.588900  0.026600  0.315200  1.0  0.0741
  H  H686  1  0.597500  0.059600  0.306800  1.0  0.0615
  H  H687  1  0.586100  0.051200  0.260200  1.0  0.0423
  H  H688  1  0.579100  0.017800  0.268300  1.0  0.0563
  H  H689  1  0.576900  0.139000  0.366600  1.0  0.0661
  H  H690  1  0.589400  0.126500  0.336300  1.0  0.063
  H  H691  1  0.596200  0.121000  0.413400  1.0  0.0763
  H  H692  1  0.511400  0.104200  0.356500  1.0  0.0844
  H  H693  1  0.530100  0.125000  0.377800  1.0  0.0609
  H  H694  1  0.505500  0.044900  0.405100  1.0  0.0617
  H  H695  1  0.495300  0.056200  0.373400  1.0  0.0565
  H  H696  1  0.544400  0.106800  0.426000  1.0  0.0476
  H  H697  1  0.533400  0.074900  0.435900  1.0  0.0573
  H  H698  1  0.626400  0.588900  0.686000  1.0  0.0444
  H  H699  1  0.597600  0.535600  0.689600  1.0  0.0668
  H  H700  1  0.529500  0.504600  0.783000  1.0  0.057
  H  H701  1  0.515100  0.540000  0.829400  1.0  0.0509
  H  H702  1  0.588900  0.526600  0.815200  1.0  0.0741
  H  H703  1  0.597500  0.559600  0.806800  1.0  0.0615
  H  H704  1  0.586100  0.551200  0.760200  1.0  0.0423
  H  H705  1  0.579100  0.517800  0.768300  1.0  0.0563
  H  H706  1  0.576900  0.639000  0.866600  1.0  0.0649
  H  H707  1  0.589400  0.626500  0.836300  1.0  0.0666
  H  H708  1  0.596200  0.621000  0.913400  1.0  0.0763
  H  H709  1  0.511400  0.604200  0.856500  1.0  0.0844
  H  H710  1  0.530100  0.625000  0.877800  1.0  0.0609
  H  H711  1  0.505500  0.544900  0.905100  1.0  0.0617
  H  H712  1  0.495300  0.556200  0.873400  1.0  0.0565
  H  H713  1  0.544400  0.606800  0.926000  1.0  0.0476
  H  H714  1  0.533400  0.574900  0.935900  1.0  0.0573
  H  H715  1  0.126400  0.088900  0.686000  1.0  0.044
  H  H716  1  0.097600  0.035600  0.689600  1.0  0.0668
  H  H717  1  0.029500  0.004600  0.783000  1.0  0.0589
  H  H718  1  0.015100  0.040000  0.829400  1.0  0.0509
  H  H719  1  0.088900  0.026600  0.815200  1.0  0.0741
  H  H720  1  0.097500  0.059600  0.806800  1.0  0.0615
  H  H721  1  0.086100  0.051200  0.760200  1.0  0.0423
  H  H722  1  0.079100  0.017800  0.768300  1.0  0.0563
  H  H723  1  0.076900  0.139000  0.866600  1.0  0.0649
  H  H724  1  0.089400  0.126500  0.836300  1.0  0.0666
  H  H725  1  0.096200  0.121000  0.913400  1.0  0.0757
  H  H726  1  0.011400  0.104200  0.856500  1.0  0.0844
  H  H727  1  0.030100  0.125000  0.877800  1.0  0.0609
  H  H728  1  0.005500  0.044900  0.905100  1.0  0.0617
  H  H729  1  0.995300  0.056200  0.873400  1.0  0.0565
  H  H730  1  0.044400  0.106800  0.926000  1.0  0.0476
  H  H731  1  0.033400  0.074900  0.935900  1.0  0.0573
  H  H732  1  0.126400  0.588900  0.186000  1.0  0.0444
  H  H733  1  0.097600  0.535600  0.189600  1.0  0.0668
  H  H734  1  0.029500  0.504600  0.283000  1.0  0.057
  H  H735  1  0.015100  0.540000  0.329400  1.0  0.0509
  H  H736  1  0.088900  0.526600  0.315200  1.0  0.0741
  H  H737  1  0.097500  0.559600  0.306800  1.0  0.0615
  H  H738  1  0.086100  0.551200  0.260200  1.0  0.0423
  H  H739  1  0.079100  0.517800  0.268300  1.0  0.0563
  H  H740  1  0.076900  0.639000  0.366600  1.0  0.0649
  H  H741  1  0.089400  0.626500  0.336300  1.0  0.0666
  H  H742  1  0.096200  0.621000  0.413400  1.0  0.0757
  H  H743  1  0.011400  0.604200  0.356500  1.0  0.0844
  H  H744  1  0.030100  0.625000  0.377800  1.0  0.0609
  H  H745  1  0.005500  0.544900  0.405100  1.0  0.0617
  H  H746  1  0.995300  0.556200  0.373400  1.0  0.0565
  H  H747  1  0.044400  0.606800  0.426000  1.0  0.0476
  H  H748  1  0.033400  0.574900  0.435900  1.0  0.0573
  H  H749  1  0.623600  0.588900  0.564000  1.0  0.046
  H  H750  1  0.652400  0.535600  0.560400  1.0  0.0671
  H  H751  1  0.720500  0.504600  0.467000  1.0  0.0571
  H  H752  1  0.734900  0.540000  0.420600  1.0  0.0527
  H  H753  1  0.661100  0.526600  0.434800  1.0  0.0731
  H  H754  1  0.652500  0.559600  0.443200  1.0  0.0612
  H  H755  1  0.663900  0.551200  0.489800  1.0  0.0431
  H  H756  1  0.670900  0.517800  0.481700  1.0  0.0556
  H  H757  1  0.673100  0.639000  0.383400  1.0  0.0686
  H  H758  1  0.660600  0.626500  0.413700  1.0  0.069
  H  H759  1  0.653800  0.621000  0.336600  1.0  0.0788
  H  H760  1  0.738600  0.604200  0.393500  1.0  0.0807
  H  H761  1  0.719900  0.625000  0.372200  1.0  0.0597
  H  H762  1  0.744500  0.544900  0.344900  1.0  0.0606
  H  H763  1  0.754700  0.556200  0.376600  1.0  0.0581
  H  H764  1  0.705600  0.606800  0.324000  1.0  0.0471
  H  H765  1  0.716600  0.574900  0.314100  1.0  0.0553
  H  H766  1  0.623600  0.088900  0.064000  1.0  0.0453
  H  H767  1  0.652400  0.035600  0.060400  1.0  0.0648
  H  H768  1  0.720500  0.004600  0.967000  1.0  0.0571
  H  H769  1  0.734900  0.040000  0.920600  1.0  0.0527
  H  H770  1  0.661100  0.026600  0.934800  1.0  0.0731
  H  H771  1  0.652500  0.059600  0.943200  1.0  0.0612
  H  H772  1  0.663900  0.051200  0.989800  1.0  0.0431
  H  H773  1  0.670900  0.017800  0.981700  1.0  0.0556
  H  H774  1  0.673100  0.139000  0.883400  1.0  0.0686
  H  H775  1  0.660600  0.126500  0.913700  1.0  0.066
  H  H776  1  0.653800  0.121000  0.836600  1.0  0.0788
  H  H777  1  0.738600  0.104200  0.893500  1.0  0.0807
  H  H778  1  0.719900  0.125000  0.872200  1.0  0.0597
  H  H779  1  0.744500  0.044900  0.844900  1.0  0.0606
  H  H780  1  0.754700  0.056200  0.876600  1.0  0.0581
  H  H781  1  0.705600  0.106800  0.824000  1.0  0.0471
  H  H782  1  0.716600  0.074900  0.814100  1.0  0.0553
  H  H783  1  0.123600  0.588900  0.064000  1.0  0.0452
  H  H784  1  0.152400  0.535600  0.060400  1.0  0.0665
  H  H785  1  0.220500  0.504600  0.967000  1.0  0.0552
  H  H786  1  0.234900  0.540000  0.920600  1.0  0.0527
  H  H787  1  0.161100  0.526600  0.934800  1.0  0.0731
  H  H788  1  0.152500  0.559600  0.943200  1.0  0.0612
  H  H789  1  0.163900  0.551200  0.989800  1.0  0.0431
  H  H790  1  0.170900  0.517800  0.981700  1.0  0.0556
  H  H791  1  0.173100  0.639000  0.883400  1.0  0.0675
  H  H792  1  0.160600  0.626500  0.913700  1.0  0.069
  H  H793  1  0.153800  0.621000  0.836600  1.0  0.0782
  H  H794  1  0.238600  0.604200  0.893500  1.0  0.0807
  H  H795  1  0.219900  0.625000  0.872200  1.0  0.0597
  H  H796  1  0.244500  0.544900  0.844900  1.0  0.0606
  H  H797  1  0.254700  0.556200  0.876600  1.0  0.0581
  H  H798  1  0.205600  0.606800  0.824000  1.0  0.0471
  H  H799  1  0.216600  0.574900  0.814100  1.0  0.0553
  H  H800  1  0.123600  0.088900  0.564000  1.0  0.0429
  H  H801  1  0.152400  0.035600  0.560400  1.0  0.068
  H  H802  1  0.220500  0.004600  0.467000  1.0  0.0552
  H  H803  1  0.234900  0.040000  0.420600  1.0  0.0523
  H  H804  1  0.161100  0.026600  0.434800  1.0  0.0731
  H  H805  1  0.152500  0.059600  0.443200  1.0  0.0612
  H  H806  1  0.163900  0.051200  0.489800  1.0  0.0431
  H  H807  1  0.170900  0.017800  0.481700  1.0  0.0556
  H  H808  1  0.173100  0.139000  0.383400  1.0  0.0675
  H  H809  1  0.160600  0.126500  0.413700  1.0  0.069
  H  H810  1  0.153800  0.121000  0.336600  1.0  0.0782
  H  H811  1  0.238600  0.104200  0.393500  1.0  0.0807
  H  H812  1  0.219900  0.125000  0.372200  1.0  0.0597
  H  H813  1  0.244500  0.044900  0.344900  1.0  0.0606
  H  H814  1  0.254700  0.056200  0.376600  1.0  0.0581
  H  H815  1  0.205600  0.106800  0.324000  1.0  0.0471
  H  H816  1  0.216600  0.074900  0.314100  1.0  0.0553
  H  H817  1  0.126400  0.661100  0.064000  1.0  0.0448
  H  H818  1  0.097600  0.714400  0.060400  1.0  0.0655
  H  H819  1  0.029500  0.745400  0.967000  1.0  0.0589
  H  H820  1  0.015100  0.710000  0.920600  1.0  0.0504
  H  H821  1  0.088900  0.723400  0.934800  1.0  0.0724
  H  H822  1  0.097500  0.690400  0.943200  1.0  0.0622
  H  H823  1  0.086100  0.698800  0.989800  1.0  0.0428
  H  H824  1  0.079100  0.732200  0.981700  1.0  0.0546
  H  H825  1  0.076900  0.611000  0.883400  1.0  0.0661
  H  H826  1  0.089400  0.623500  0.913700  1.0  0.0696
  H  H827  1  0.096200  0.629000  0.836600  1.0  0.0748
  H  H828  1  0.011400  0.645800  0.893500  1.0  0.0815
  H  H829  1  0.030100  0.625000  0.872200  1.0  0.0609
  H  H830  1  0.005500  0.705100  0.844900  1.0  0.0654
  H  H831  1  0.995300  0.693800  0.876600  1.0  0.0573
  H  H832  1  0.044400  0.643200  0.824000  1.0  0.0485
  H  H833  1  0.033400  0.675100  0.814100  1.0  0.0577
  H  H834  1  0.126400  0.161100  0.564000  1.0  0.0449
  H  H835  1  0.097600  0.214400  0.560400  1.0  0.0655
  H  H836  1  0.029500  0.245400  0.467000  1.0  0.0605
  H  H837  1  0.015100  0.210000  0.420600  1.0  0.0508
  H  H838  1  0.088900  0.223400  0.434800  1.0  0.0724
  H  H839  1  0.097500  0.190400  0.443200  1.0  0.0622
  H  H840  1  0.086100  0.198800  0.489800  1.0  0.0428
  H  H841  1  0.079100  0.232200  0.481700  1.0  0.0546
  H  H842  1  0.076900  0.111000  0.383400  1.0  0.0661
  H  H843  1  0.089400  0.123500  0.413700  1.0  0.0696
  H  H844  1  0.096200  0.129000  0.336600  1.0  0.0752
  H  H845  1  0.011400  0.145800  0.393500  1.0  0.0815
  H  H846  1  0.030100  0.125000  0.372200  1.0  0.0609
  H  H847  1  0.005500  0.205100  0.344900  1.0  0.0654
  H  H848  1  0.995300  0.193800  0.376600  1.0  0.0573
  H  H849  1  0.044400  0.143200  0.324000  1.0  0.0485
  H  H850  1  0.033400  0.175100  0.314100  1.0  0.0577
  H  H851  1  0.626400  0.661100  0.564000  1.0  0.0448
  H  H852  1  0.597600  0.714400  0.560400  1.0  0.0651
  H  H853  1  0.529500  0.745400  0.467000  1.0  0.0589
  H  H854  1  0.515100  0.710000  0.420600  1.0  0.0504
  H  H855  1  0.588900  0.723400  0.434800  1.0  0.0724
  H  H856  1  0.597500  0.690400  0.443200  1.0  0.0622
  H  H857  1  0.586100  0.698800  0.489800  1.0  0.0428
  H  H858  1  0.579100  0.732200  0.481700  1.0  0.0546
  H  H859  1  0.576900  0.611000  0.383400  1.0  0.0674
  H  H860  1  0.589400  0.623500  0.413700  1.0  0.0696
  H  H861  1  0.596200  0.629000  0.336600  1.0  0.0748
  H  H862  1  0.511400  0.645800  0.393500  1.0  0.0815
  H  H863  1  0.530100  0.625000  0.372200  1.0  0.0609
  H  H864  1  0.505500  0.705100  0.344900  1.0  0.0654
  H  H865  1  0.495300  0.693800  0.376600  1.0  0.0573
  H  H866  1  0.544400  0.643200  0.324000  1.0  0.0485
  H  H867  1  0.533400  0.675100  0.314100  1.0  0.0577
  H  H868  1  0.626400  0.161100  0.064000  1.0  0.0449
  H  H869  1  0.597600  0.214400  0.060400  1.0  0.0655
  H  H870  1  0.529500  0.245400  0.967000  1.0  0.0605
  H  H871  1  0.515100  0.210000  0.920600  1.0  0.0508
  H  H872  1  0.588900  0.223400  0.934800  1.0  0.0724
  H  H873  1  0.597500  0.190400  0.943200  1.0  0.0622
  H  H874  1  0.586100  0.198800  0.989800  1.0  0.0428
  H  H875  1  0.579100  0.232200  0.981700  1.0  0.0546
  H  H876  1  0.576900  0.111000  0.883400  1.0  0.0674
  H  H877  1  0.589400  0.123500  0.913700  1.0  0.0659
  H  H878  1  0.596200  0.129000  0.836600  1.0  0.0748
  H  H879  1  0.511400  0.145800  0.893500  1.0  0.0815
  H  H880  1  0.530100  0.125000  0.872200  1.0  0.0609
  H  H881  1  0.505500  0.205100  0.844900  1.0  0.0654
  H  H882  1  0.495300  0.193800  0.876600  1.0  0.0573
  H  H883  1  0.544400  0.143200  0.824000  1.0  0.0485
  H  H884  1  0.533400  0.175100  0.814100  1.0  0.0577
  H  H885  1  0.123600  0.161100  0.686000  1.0  0.0459
  H  H886  1  0.152400  0.214400  0.689600  1.0  0.0657
  H  H887  1  0.220500  0.245400  0.783000  1.0  0.0595
  H  H888  1  0.234900  0.210000  0.829400  1.0  0.0534
  H  H889  1  0.161100  0.223400  0.815200  1.0  0.0752
  H  H890  1  0.152500  0.190400  0.806800  1.0  0.0609
  H  H891  1  0.163900  0.198800  0.760200  1.0  0.0429
  H  H892  1  0.170900  0.232200  0.768300  1.0  0.0548
  H  H893  1  0.173100  0.111000  0.866600  1.0  0.0675
  H  H894  1  0.160600  0.123500  0.836300  1.0  0.0685
  H  H895  1  0.153800  0.129000  0.913400  1.0  0.0787
  H  H896  1  0.238600  0.145800  0.856500  1.0  0.0822
  H  H897  1  0.219900  0.125000  0.877800  1.0  0.0598
  H  H898  1  0.244500  0.205100  0.905100  1.0  0.0629
  H  H899  1  0.254700  0.193800  0.873400  1.0  0.0571
  H  H900  1  0.205600  0.143200  0.926000  1.0  0.0484
  H  H901  1  0.216600  0.175100  0.935900  1.0  0.0554
  H  H902  1  0.123600  0.661100  0.186000  1.0  0.046
  H  H903  1  0.152400  0.714400  0.189600  1.0  0.0657
  H  H904  1  0.220500  0.745400  0.283000  1.0  0.0579
  H  H905  1  0.234900  0.710000  0.329400  1.0  0.053
  H  H906  1  0.161100  0.723400  0.315200  1.0  0.0752
  H  H907  1  0.152500  0.690400  0.306800  1.0  0.0609
  H  H908  1  0.163900  0.698800  0.260200  1.0  0.0429
  H  H909  1  0.170900  0.732200  0.268300  1.0  0.0548
  H  H910  1  0.173100  0.611000  0.366600  1.0  0.0675
  H  H911  1  0.160600  0.623500  0.336300  1.0  0.0685
  H  H912  1  0.153800  0.629000  0.413400  1.0  0.0787
  H  H913  1  0.238600  0.645800  0.356500  1.0  0.0822
  H  H914  1  0.219900  0.625000  0.377800  1.0  0.0598
  H  H915  1  0.244500  0.705100  0.405100  1.0  0.0629
  H  H916  1  0.254700  0.693800  0.373400  1.0  0.0571
  H  H917  1  0.205600  0.643200  0.426000  1.0  0.0484
  H  H918  1  0.216600  0.675100  0.435900  1.0  0.0554
  H  H919  1  0.623600  0.161100  0.186000  1.0  0.0455
  H  H920  1  0.652400  0.214400  0.189600  1.0  0.0651
  H  H921  1  0.720500  0.245400  0.283000  1.0  0.0595
  H  H922  1  0.734900  0.210000  0.329400  1.0  0.0534
  H  H923  1  0.661100  0.223400  0.315200  1.0  0.0752
  H  H924  1  0.652500  0.190400  0.306800  1.0  0.0609
  H  H925  1  0.663900  0.198800  0.260200  1.0  0.0429
  H  H926  1  0.670900  0.232200  0.268300  1.0  0.0548
  H  H927  1  0.673100  0.111000  0.366600  1.0  0.0686
  H  H928  1  0.660600  0.123500  0.336300  1.0  0.0654
  H  H929  1  0.653800  0.129000  0.413400  1.0  0.0787
  H  H930  1  0.738600  0.145800  0.356500  1.0  0.0822
  H  H931  1  0.719900  0.125000  0.377800  1.0  0.0598
  H  H932  1  0.744500  0.205100  0.405100  1.0  0.0629
  H  H933  1  0.754700  0.193800  0.373400  1.0  0.0571
  H  H934  1  0.705600  0.143200  0.426000  1.0  0.0484
  H  H935  1  0.716600  0.175100  0.435900  1.0  0.0554
  H  H936  1  0.623600  0.661100  0.686000  1.0  0.0456
  H  H937  1  0.652400  0.714400  0.689600  1.0  0.0657
  H  H938  1  0.720500  0.745400  0.783000  1.0  0.0595
  H  H939  1  0.734900  0.710000  0.829400  1.0  0.0534
  H  H940  1  0.661100  0.723400  0.815200  1.0  0.0752
  H  H941  1  0.652500  0.690400  0.806800  1.0  0.0609
  H  H942  1  0.663900  0.698800  0.760200  1.0  0.0429
  H  H943  1  0.670900  0.732200  0.768300  1.0  0.0548
  H  H944  1  0.673100  0.611000  0.866600  1.0  0.0686
  H  H945  1  0.660600  0.623500  0.836300  1.0  0.0654
  H  H946  1  0.653800  0.629000  0.913400  1.0  0.0787
  H  H947  1  0.738600  0.645800  0.856500  1.0  0.0822
  H  H948  1  0.719900  0.625000  0.877800  1.0  0.0598
  H  H949  1  0.744500  0.705100  0.905100  1.0  0.0629
  H  H950  1  0.754700  0.693800  0.873400  1.0  0.0571
  H  H951  1  0.705600  0.643200  0.926000  1.0  0.0484
  H  H952  1  0.716600  0.675100  0.935900  1.0  0.0554
  H  H953  1  0.376400  0.436000  0.411100  1.0  0.0468
  H  H954  1  0.347600  0.439600  0.464400  1.0  0.066
  H  H955  1  0.279500  0.533000  0.495400  1.0  0.0587
  H  H956  1  0.265100  0.579400  0.460000  1.0  0.051
  H  H957  1  0.338900  0.565200  0.473400  1.0  0.072
  H  H958  1  0.347500  0.556800  0.440400  1.0  0.0597
  H  H959  1  0.336100  0.510200  0.448800  1.0  0.0415
  H  H960  1  0.329100  0.518300  0.482200  1.0  0.0553
  H  H961  1  0.326900  0.616600  0.361000  1.0  0.064
  H  H962  1  0.339400  0.586300  0.373500  1.0  0.069
  H  H963  1  0.346200  0.663400  0.379000  1.0  0.0756
  H  H964  1  0.261400  0.606500  0.395800  1.0  0.0839
  H  H965  1  0.280100  0.627800  0.375000  1.0  0.0547
  H  H966  1  0.255500  0.655100  0.455100  1.0  0.0613
  H  H967  1  0.245300  0.623400  0.443800  1.0  0.053
  H  H968  1  0.294400  0.676000  0.393200  1.0  0.0501
  H  H969  1  0.283400  0.685900  0.425100  1.0  0.058
  H  H970  1  0.376400  0.936000  0.911100  1.0  0.0456
  H  H971  1  0.347600  0.939600  0.964400  1.0  0.0636
  H  H972  1  0.279500  0.033000  0.995400  1.0  0.0579
  H  H973  1  0.265100  0.079400  0.960000  1.0  0.0514
  H  H974  1  0.338900  0.065200  0.973400  1.0  0.072
  H  H975  1  0.347500  0.056800  0.940400  1.0  0.0597
  H  H976  1  0.336100  0.010200  0.948800  1.0  0.0415
  H  H977  1  0.329100  0.018300  0.982200  1.0  0.0553
  H  H978  1  0.326900  0.116600  0.861000  1.0  0.064
  H  H979  1  0.339400  0.086300  0.873500  1.0  0.069
  H  H980  1  0.346200  0.163400  0.879000  1.0  0.0756
  H  H981  1  0.261400  0.106500  0.895800  1.0  0.0839
  H  H982  1  0.280100  0.127800  0.875000  1.0  0.0547
  H  H983  1  0.255500  0.155100  0.955100  1.0  0.0613
  H  H984  1  0.245300  0.123400  0.943800  1.0  0.053
  H  H985  1  0.294400  0.176000  0.893200  1.0  0.0501
  H  H986  1  0.283400  0.185900  0.925100  1.0  0.058
  H  H987  1  0.876400  0.436000  0.911100  1.0  0.0434
  H  H988  1  0.847600  0.439600  0.964400  1.0  0.0679
  H  H989  1  0.779500  0.533000  0.995400  1.0  0.0579
  H  H990  1  0.765100  0.579400  0.960000  1.0  0.0514
  H  H991  1  0.838900  0.565200  0.973400  1.0  0.072
  H  H992  1  0.847500  0.556800  0.940400  1.0  0.0597
  H  H993  1  0.836100  0.510200  0.948800  1.0  0.0415
  H  H994  1  0.829100  0.518300  0.982200  1.0  0.0553
  H  H995  1  0.826900  0.616600  0.861000  1.0  0.0653
  H  H996  1  0.839400  0.586300  0.873500  1.0  0.069
  H  H997  1  0.846200  0.663400  0.879000  1.0  0.0762
  H  H998  1  0.761400  0.606500  0.895800  1.0  0.0839
  H  H999  1  0.780100  0.627800  0.875000  1.0  0.0547
  H  H1000  1  0.755500  0.655100  0.955100  1.0  0.0613
  H  H1001  1  0.745300  0.623400  0.943800  1.0  0.053
  H  H1002  1  0.794400  0.676000  0.893200  1.0  0.0501
  H  H1003  1  0.783400  0.685900  0.925100  1.0  0.058
  H  H1004  1  0.876400  0.936000  0.411100  1.0  0.0464
  H  H1005  1  0.847600  0.939600  0.464400  1.0  0.0672
  H  H1006  1  0.779500  0.033000  0.495400  1.0  0.0579
  H  H1007  1  0.765100  0.079400  0.460000  1.0  0.051
  H  H1008  1  0.838900  0.065200  0.473400  1.0  0.072
  H  H1009  1  0.847500  0.056800  0.440400  1.0  0.0597
  H  H1010  1  0.836100  0.010200  0.448800  1.0  0.0415
  H  H1011  1  0.829100  0.018300  0.482200  1.0  0.0553
  H  H1012  1  0.826900  0.116600  0.361000  1.0  0.0653
  H  H1013  1  0.839400  0.086300  0.373500  1.0  0.0684
  H  H1014  1  0.846200  0.163400  0.379000  1.0  0.0756
  H  H1015  1  0.761400  0.106500  0.395800  1.0  0.0839
  H  H1016  1  0.780100  0.127800  0.375000  1.0  0.0547
  H  H1017  1  0.755500  0.155100  0.455100  1.0  0.0613
  H  H1018  1  0.745300  0.123400  0.443800  1.0  0.053
  H  H1019  1  0.794400  0.176000  0.393200  1.0  0.0501
  H  H1020  1  0.783400  0.185900  0.425100  1.0  0.058
  H  H1021  1  0.373600  0.814000  0.911100  1.0  0.0455
  H  H1022  1  0.402400  0.810400  0.964400  1.0  0.0671
  H  H1023  1  0.470500  0.717000  0.995400  1.0  0.0565
  H  H1024  1  0.484900  0.670600  0.960000  1.0  0.0533
  H  H1025  1  0.411100  0.684800  0.973400  1.0  0.0753
  H  H1026  1  0.402500  0.693200  0.940400  1.0  0.0598
  H  H1027  1  0.413900  0.739800  0.948800  1.0  0.0424
  H  H1028  1  0.420900  0.731700  0.982200  1.0  0.0557
  H  H1029  1  0.423100  0.633400  0.861000  1.0  0.067
  H  H1030  1  0.410600  0.663700  0.873500  1.0  0.0684
  H  H1031  1  0.403800  0.586600  0.879000  1.0  0.0774
  H  H1032  1  0.488600  0.643500  0.895800  1.0  0.0856
  H  H1033  1  0.469900  0.622200  0.875000  1.0  0.0545
  H  H1034  1  0.494500  0.594900  0.955100  1.0  0.0603
  H  H1035  1  0.504700  0.626600  0.943800  1.0  0.0511
  H  H1036  1  0.455600  0.574000  0.893200  1.0  0.0475
  H  H1037  1  0.466600  0.564100  0.925100  1.0  0.0564
  H  H1038  1  0.373600  0.314000  0.411100  1.0  0.0459
  H  H1039  1  0.402400  0.310400  0.464400  1.0  0.0671
  H  H1040  1  0.470500  0.217000  0.495400  1.0  0.0577
  H  H1041  1  0.484900  0.170600  0.460000  1.0  0.0529
  H  H1042  1  0.411100  0.184800  0.473400  1.0  0.0753
  H  H1043  1  0.402500  0.193200  0.440400  1.0  0.0598
  H  H1044  1  0.413900  0.239800  0.448800  1.0  0.0424
  H  H1045  1  0.420900  0.231700  0.482200  1.0  0.0557
  H  H1046  1  0.423100  0.133400  0.361000  1.0  0.067
  H  H1047  1  0.410600  0.163700  0.373500  1.0  0.0684
  H  H1048  1  0.403800  0.086600  0.379000  1.0  0.078
  H  H1049  1  0.488600  0.143500  0.395800  1.0  0.0856
  H  H1050  1  0.469900  0.122200  0.375000  1.0  0.0545
  H  H1051  1  0.494500  0.094900  0.455100  1.0  0.0603
  H  H1052  1  0.504700  0.126600  0.443800  1.0  0.0511
  H  H1053  1  0.455600  0.074000  0.393200  1.0  0.0475
  H  H1054  1  0.466600  0.064100  0.425100  1.0  0.0564
  H  H1055  1  0.873600  0.814000  0.411100  1.0  0.045
  H  H1056  1  0.902400  0.810400  0.464400  1.0  0.0673
  H  H1057  1  0.970500  0.717000  0.495400  1.0  0.0565
  H  H1058  1  0.984900  0.670600  0.460000  1.0  0.0533
  H  H1059  1  0.911100  0.684800  0.473400  1.0  0.0753
  H  H1060  1  0.902500  0.693200  0.440400  1.0  0.0598
  H  H1061  1  0.913900  0.739800  0.448800  1.0  0.0424
  H  H1062  1  0.920900  0.731700  0.482200  1.0  0.0557
  H  H1063  1  0.923100  0.633400  0.361000  1.0  0.0682
  H  H1064  1  0.910600  0.663700  0.373500  1.0  0.0684
  H  H1065  1  0.903800  0.586600  0.379000  1.0  0.0774
  H  H1066  1  0.988600  0.643500  0.395800  1.0  0.0856
  H  H1067  1  0.969900  0.622200  0.375000  1.0  0.0545
  H  H1068  1  0.994500  0.594900  0.455100  1.0  0.0603
  H  H1069  1  0.004700  0.626600  0.443800  1.0  0.0511
  H  H1070  1  0.955600  0.574000  0.393200  1.0  0.0475
  H  H1071  1  0.966600  0.564100  0.425100  1.0  0.0564
  H  H1072  1  0.873600  0.314000  0.911100  1.0  0.0451
  H  H1073  1  0.902400  0.310400  0.964400  1.0  0.0673
  H  H1074  1  0.970500  0.217000  0.995400  1.0  0.0565
  H  H1075  1  0.984900  0.170600  0.960000  1.0  0.0533
  H  H1076  1  0.911100  0.184800  0.973400  1.0  0.0753
  H  H1077  1  0.902500  0.193200  0.940400  1.0  0.0598
  H  H1078  1  0.913900  0.239800  0.948800  1.0  0.0424
  H  H1079  1  0.920900  0.231700  0.982200  1.0  0.0557
  H  H1080  1  0.923100  0.133400  0.861000  1.0  0.0682
  H  H1081  1  0.910600  0.163700  0.873500  1.0  0.0684
  H  H1082  1  0.903800  0.086600  0.879000  1.0  0.078
  H  H1083  1  0.988600  0.143500  0.895800  1.0  0.0856
  H  H1084  1  0.969900  0.122200  0.875000  1.0  0.0545
  H  H1085  1  0.994500  0.094900  0.955100  1.0  0.0603
  H  H1086  1  0.004700  0.126600  0.943800  1.0  0.0511
  H  H1087  1  0.955600  0.074000  0.893200  1.0  0.0475
  H  H1088  1  0.966600  0.064100  0.925100  1.0  0.0564
  H  H1089  1  0.876400  0.314000  0.838900  1.0  0.047
  H  H1090  1  0.847600  0.310400  0.785600  1.0  0.0671
  H  H1091  1  0.779500  0.217000  0.754600  1.0  0.058
  H  H1092  1  0.765100  0.170600  0.790000  1.0  0.0506
  H  H1093  1  0.838900  0.184800  0.776600  1.0  0.0756
  H  H1094  1  0.847500  0.193200  0.809600  1.0  0.0603
  H  H1095  1  0.836100  0.239800  0.801200  1.0  0.0414
  H  H1096  1  0.829100  0.231700  0.767800  1.0  0.0562
  H  H1097  1  0.826900  0.133400  0.889000  1.0  0.0656
  H  H1098  1  0.839400  0.163700  0.876500  1.0  0.0684
  H  H1099  1  0.846200  0.086600  0.871000  1.0  0.0762
  H  H1100  1  0.761400  0.143500  0.854200  1.0  0.0837
  H  H1101  1  0.780100  0.122200  0.875000  1.0  0.0549
  H  H1102  1  0.755500  0.094900  0.794900  1.0  0.0609
  H  H1103  1  0.745300  0.126600  0.806200  1.0  0.0516
  H  H1104  1  0.794400  0.074000  0.856800  1.0  0.0492
  H  H1105  1  0.783400  0.064100  0.824900  1.0  0.0576
  H  H1106  1  0.876400  0.814000  0.338900  1.0  0.0461
  H  H1107  1  0.847600  0.810400  0.285600  1.0  0.0674
  H  H1108  1  0.779500  0.717000  0.254600  1.0  0.058
  H  H1109  1  0.765100  0.670600  0.290000  1.0  0.0502
  H  H1110  1  0.838900  0.684800  0.276600  1.0  0.0756
  H  H1111  1  0.847500  0.693200  0.309600  1.0  0.0603
  H  H1112  1  0.836100  0.739800  0.301200  1.0  0.0414
  H  H1113  1  0.829100  0.731700  0.267800  1.0  0.0562
  H  H1114  1  0.826900  0.633400  0.389000  1.0  0.0656
  H  H1115  1  0.839400  0.663700  0.376500  1.0  0.0678
  H  H1116  1  0.846200  0.586600  0.371000  1.0  0.0766
  H  H1117  1  0.761400  0.643500  0.354200  1.0  0.0837
  H  H1118  1  0.780100  0.622200  0.375000  1.0  0.0549
  H  H1119  1  0.755500  0.594900  0.294900  1.0  0.0609
  H  H1120  1  0.745300  0.626600  0.306200  1.0  0.0516
  H  H1121  1  0.794400  0.574000  0.356800  1.0  0.0492
  H  H1122  1  0.783400  0.564100  0.324900  1.0  0.0576
  H  H1123  1  0.376400  0.314000  0.338900  1.0  0.0461
  H  H1124  1  0.347600  0.310400  0.285600  1.0  0.0671
  H  H1125  1  0.279500  0.217000  0.254600  1.0  0.0586
  H  H1126  1  0.265100  0.170600  0.290000  1.0  0.0502
  H  H1127  1  0.338900  0.184800  0.276600  1.0  0.0756
  H  H1128  1  0.347500  0.193200  0.309600  1.0  0.0603
  H  H1129  1  0.336100  0.239800  0.301200  1.0  0.0414
  H  H1130  1  0.329100  0.231700  0.267800  1.0  0.0562
  H  H1131  1  0.326900  0.133400  0.389000  1.0  0.0644
  H  H1132  1  0.339400  0.163700  0.376500  1.0  0.0678
  H  H1133  1  0.346200  0.086600  0.371000  1.0  0.0762
  H  H1134  1  0.261400  0.143500  0.354200  1.0  0.0837
  H  H1135  1  0.280100  0.122200  0.375000  1.0  0.0549
  H  H1136  1  0.255500  0.094900  0.294900  1.0  0.0609
  H  H1137  1  0.245300  0.126600  0.306200  1.0  0.0516
  H  H1138  1  0.294400  0.074000  0.356800  1.0  0.0492
  H  H1139  1  0.283400  0.064100  0.324900  1.0  0.0576
  H  H1140  1  0.376400  0.814000  0.838900  1.0  0.047
  H  H1141  1  0.347600  0.810400  0.785600  1.0  0.0671
  H  H1142  1  0.279500  0.717000  0.754600  1.0  0.0586
  H  H1143  1  0.265100  0.670600  0.790000  1.0  0.0506
  H  H1144  1  0.338900  0.684800  0.776600  1.0  0.0756
  H  H1145  1  0.347500  0.693200  0.809600  1.0  0.0603
  H  H1146  1  0.336100  0.739800  0.801200  1.0  0.0414
  H  H1147  1  0.329100  0.731700  0.767800  1.0  0.0562
  H  H1148  1  0.326900  0.633400  0.889000  1.0  0.0644
  H  H1149  1  0.339400  0.663700  0.876500  1.0  0.0684
  H  H1150  1  0.346200  0.586600  0.871000  1.0  0.0762
  H  H1151  1  0.261400  0.643500  0.854200  1.0  0.0837
  H  H1152  1  0.280100  0.622200  0.875000  1.0  0.0549
  H  H1153  1  0.255500  0.594900  0.794900  1.0  0.0609
  H  H1154  1  0.245300  0.626600  0.806200  1.0  0.0516
  H  H1155  1  0.294400  0.574000  0.856800  1.0  0.0492
  H  H1156  1  0.283400  0.564100  0.824900  1.0  0.0576
  H  H1157  1  0.873600  0.936000  0.338900  1.0  0.0478
  H  H1158  1  0.902400  0.939600  0.285600  1.0  0.0672
  H  H1159  1  0.970500  0.033000  0.254600  1.0  0.0567
  H  H1160  1  0.984900  0.079400  0.290000  1.0  0.0538
  H  H1161  1  0.911100  0.065200  0.276600  1.0  0.0751
  H  H1162  1  0.902500  0.056800  0.309600  1.0  0.0599
  H  H1163  1  0.913900  0.010200  0.301200  1.0  0.0429
  H  H1164  1  0.920900  0.018300  0.267800  1.0  0.0558
  H  H1165  1  0.923100  0.116600  0.389000  1.0  0.0673
  H  H1166  1  0.910600  0.086300  0.376500  1.0  0.0699
  H  H1167  1  0.903800  0.163400  0.371000  1.0  0.0783
  H  H1168  1  0.988600  0.106500  0.354200  1.0  0.0828
  H  H1169  1  0.969900  0.127800  0.375000  1.0  0.0553
  H  H1170  1  0.994500  0.155100  0.294900  1.0  0.0623
  H  H1171  1  0.004700  0.123400  0.306200  1.0  0.0518
  H  H1172  1  0.955600  0.176000  0.356800  1.0  0.0483
  H  H1173  1  0.966600  0.185900  0.324900  1.0  0.0575
  H  H1174  1  0.873600  0.436000  0.838900  1.0  0.0478
  H  H1175  1  0.902400  0.439600  0.785600  1.0  0.0672
  H  H1176  1  0.970500  0.533000  0.754600  1.0  0.0567
  H  H1177  1  0.984900  0.579400  0.790000  1.0  0.0538
  H  H1178  1  0.911100  0.565200  0.776600  1.0  0.0751
  H  H1179  1  0.902500  0.556800  0.809600  1.0  0.0599
  H  H1180  1  0.913900  0.510200  0.801200  1.0  0.0429
  H  H1181  1  0.920900  0.518300  0.767800  1.0  0.0558
  H  H1182  1  0.923100  0.616600  0.889000  1.0  0.0673
  H  H1183  1  0.910600  0.586300  0.876500  1.0  0.0699
  H  H1184  1  0.903800  0.663400  0.871000  1.0  0.0778
  H  H1185  1  0.988600  0.606500  0.854200  1.0  0.0828
  H  H1186  1  0.969900  0.627800  0.875000  1.0  0.0553
  H  H1187  1  0.994500  0.655100  0.794900  1.0  0.0623
  H  H1188  1  0.004700  0.623400  0.806200  1.0  0.0518
  H  H1189  1  0.955600  0.676000  0.856800  1.0  0.0483
  H  H1190  1  0.966600  0.685900  0.824900  1.0  0.0575
  H  H1191  1  0.373600  0.936000  0.838900  1.0  0.0469
  H  H1192  1  0.402400  0.939600  0.785600  1.0  0.0675
  H  H1193  1  0.470500  0.033000  0.754600  1.0  0.0578
  H  H1194  1  0.484900  0.079400  0.790000  1.0  0.0538
  H  H1195  1  0.411100  0.065200  0.776600  1.0  0.0751
  H  H1196  1  0.402500  0.056800  0.809600  1.0  0.0599
  H  H1197  1  0.413900  0.010200  0.801200  1.0  0.0429
  H  H1198  1  0.420900  0.018300  0.767800  1.0  0.0558
  H  H1199  1  0.423100  0.116600  0.889000  1.0  0.0663
  H  H1200  1  0.410600  0.086300  0.876500  1.0  0.0699
  H  H1201  1  0.403800  0.163400  0.871000  1.0  0.0778
  H  H1202  1  0.488600  0.106500  0.854200  1.0  0.0828
  H  H1203  1  0.469900  0.127800  0.875000  1.0  0.0553
  H  H1204  1  0.494500  0.155100  0.794900  1.0  0.0623
  H  H1205  1  0.504700  0.123400  0.806200  1.0  0.0518
  H  H1206  1  0.455600  0.176000  0.856800  1.0  0.0483
  H  H1207  1  0.466600  0.185900  0.824900  1.0  0.0575
  H  H1208  1  0.373600  0.436000  0.338900  1.0  0.047
  H  H1209  1  0.402400  0.439600  0.285600  1.0  0.0675
  H  H1210  1  0.470500  0.533000  0.254600  1.0  0.0578
  H  H1211  1  0.484900  0.579400  0.290000  1.0  0.0534
  H  H1212  1  0.411100  0.565200  0.276600  1.0  0.0751
  H  H1213  1  0.402500  0.556800  0.309600  1.0  0.0599
  H  H1214  1  0.413900  0.510200  0.301200  1.0  0.0429
  H  H1215  1  0.420900  0.518300  0.267800  1.0  0.0558
  H  H1216  1  0.423100  0.616600  0.389000  1.0  0.0663
  H  H1217  1  0.410600  0.586300  0.376500  1.0  0.0699
  H  H1218  1  0.403800  0.663400  0.371000  1.0  0.0778
  H  H1219  1  0.488600  0.606500  0.354200  1.0  0.0828
  H  H1220  1  0.469900  0.627800  0.375000  1.0  0.0553
  H  H1221  1  0.494500  0.655100  0.294900  1.0  0.0623
  H  H1222  1  0.504700  0.623400  0.306200  1.0  0.0518
  H  H1223  1  0.455600  0.676000  0.356800  1.0  0.0483
  H  H1224  1  0.466600  0.685900  0.324900  1.0  0.0575
  H  H1225  1  0.936000  0.338900  0.873600  1.0  0.0444
  H  H1226  1  0.939600  0.285600  0.902400  1.0  0.0658
  H  H1227  1  0.033000  0.254600  0.970500  1.0  0.0578
  H  H1228  1  0.079400  0.290000  0.984900  1.0  0.0551
  H  H1229  1  0.065200  0.276600  0.911100  1.0  0.0743
  H  H1230  1  0.056800  0.309600  0.902500  1.0  0.0615
  H  H1231  1  0.010200  0.301200  0.913900  1.0  0.0424
  H  H1232  1  0.018300  0.267800  0.920900  1.0  0.0561
  H  H1233  1  0.116600  0.389000  0.923100  1.0  0.0699
  H  H1234  1  0.086300  0.376500  0.910600  1.0  0.0628
  H  H1235  1  0.163400  0.371000  0.903800  1.0  0.0777
  H  H1236  1  0.106500  0.354200  0.988600  1.0  0.085
  H  H1237  1  0.127800  0.375000  0.969900  1.0  0.0585
  H  H1238  1  0.155100  0.294900  0.994500  1.0  0.0583
  H  H1239  1  0.123400  0.306200  0.004700  1.0  0.0508
  H  H1240  1  0.176000  0.356800  0.955600  1.0  0.0484
  H  H1241  1  0.185900  0.324900  0.966600  1.0  0.0564
  H  H1242  1  0.936000  0.838900  0.373600  1.0  0.0439
  H  H1243  1  0.939600  0.785600  0.402400  1.0  0.0658
  H  H1244  1  0.033000  0.754600  0.470500  1.0  0.059
  H  H1245  1  0.079400  0.790000  0.484900  1.0  0.0551
  H  H1246  1  0.065200  0.776600  0.411100  1.0  0.0743
  H  H1247  1  0.056800  0.809600  0.402500  1.0  0.0615
  H  H1248  1  0.010200  0.801200  0.413900  1.0  0.0424
  H  H1249  1  0.018300  0.767800  0.420900  1.0  0.0561
  H  H1250  1  0.116600  0.889000  0.423100  1.0  0.0687
  H  H1251  1  0.086300  0.876500  0.410600  1.0  0.0628
  H  H1252  1  0.163400  0.871000  0.403800  1.0  0.0774
  H  H1253  1  0.106500  0.854200  0.488600  1.0  0.085
  H  H1254  1  0.127800  0.875000  0.469900  1.0  0.0585
  H  H1255  1  0.155100  0.794900  0.494500  1.0  0.0583
  H  H1256  1  0.123400  0.806200  0.504700  1.0  0.0508
  H  H1257  1  0.176000  0.856800  0.455600  1.0  0.0484
  H  H1258  1  0.185900  0.824900  0.466600  1.0  0.0564
  H  H1259  1  0.436000  0.338900  0.373600  1.0  0.0444
  H  H1260  1  0.439600  0.285600  0.402400  1.0  0.0662
  H  H1261  1  0.533000  0.254600  0.470500  1.0  0.059
  H  H1262  1  0.579400  0.290000  0.484900  1.0  0.0546
  H  H1263  1  0.565200  0.276600  0.411100  1.0  0.0743
  H  H1264  1  0.556800  0.309600  0.402500  1.0  0.0615
  H  H1265  1  0.510200  0.301200  0.413900  1.0  0.0424
  H  H1266  1  0.518300  0.267800  0.420900  1.0  0.0561
  H  H1267  1  0.616600  0.389000  0.423100  1.0  0.0687
  H  H1268  1  0.586300  0.376500  0.410600  1.0  0.0628
  H  H1269  1  0.663400  0.371000  0.403800  1.0  0.0774
  H  H1270  1  0.606500  0.354200  0.488600  1.0  0.085
  H  H1271  1  0.627800  0.375000  0.469900  1.0  0.0585
  H  H1272  1  0.655100  0.294900  0.494500  1.0  0.0583
  H  H1273  1  0.623400  0.306200  0.504700  1.0  0.0508
  H  H1274  1  0.676000  0.356800  0.455600  1.0  0.0484
  H  H1275  1  0.685900  0.324900  0.466600  1.0  0.0564
  H  H1276  1  0.436000  0.838900  0.873600  1.0  0.0439
  H  H1277  1  0.439600  0.785600  0.902400  1.0  0.0662
  H  H1278  1  0.533000  0.754600  0.970500  1.0  0.0578
  H  H1279  1  0.579400  0.790000  0.984900  1.0  0.0551
  H  H1280  1  0.565200  0.776600  0.911100  1.0  0.0743
  H  H1281  1  0.556800  0.809600  0.902500  1.0  0.0615
  H  H1282  1  0.510200  0.801200  0.913900  1.0  0.0424
  H  H1283  1  0.518300  0.767800  0.920900  1.0  0.0561
  H  H1284  1  0.616600  0.889000  0.923100  1.0  0.0699
  H  H1285  1  0.586300  0.876500  0.910600  1.0  0.0628
  H  H1286  1  0.663400  0.871000  0.903800  1.0  0.0774
  H  H1287  1  0.606500  0.854200  0.988600  1.0  0.085
  H  H1288  1  0.627800  0.875000  0.969900  1.0  0.0585
  H  H1289  1  0.655100  0.794900  0.994500  1.0  0.0583
  H  H1290  1  0.623400  0.806200  0.004700  1.0  0.0508
  H  H1291  1  0.676000  0.856800  0.955600  1.0  0.0484
  H  H1292  1  0.685900  0.824900  0.966600  1.0  0.0564
  H  H1293  1  0.314000  0.838900  0.876400  1.0  0.0456
  H  H1294  1  0.310400  0.785600  0.847600  1.0  0.0678
  H  H1295  1  0.217000  0.754600  0.779500  1.0  0.0579
  H  H1296  1  0.170600  0.790000  0.765100  1.0  0.0531
  H  H1297  1  0.184800  0.776600  0.838900  1.0  0.0752
  H  H1298  1  0.193200  0.809600  0.847500  1.0  0.0613
  H  H1299  1  0.239800  0.801200  0.836100  1.0  0.0413
  H  H1300  1  0.231700  0.767800  0.829100  1.0  0.0569
  H  H1301  1  0.133400  0.889000  0.826900  1.0  0.0713
  H  H1302  1  0.163700  0.876500  0.839400  1.0  0.0598
  H  H1303  1  0.086600  0.871000  0.846200  1.0  0.0757
  H  H1304  1  0.143500  0.854200  0.761400  1.0  0.0859
  H  H1305  1  0.122200  0.875000  0.780100  1.0  0.0581
  H  H1306  1  0.094900  0.794900  0.755500  1.0  0.0589
  H  H1307  1  0.126600  0.806200  0.745300  1.0  0.046
  H  H1308  1  0.074000  0.856800  0.794400  1.0  0.0481
  H  H1309  1  0.064100  0.824900  0.783400  1.0  0.0533
  H  H1310  1  0.314000  0.338900  0.376400  1.0  0.0445
  H  H1311  1  0.310400  0.285600  0.347600  1.0  0.0678
  H  H1312  1  0.217000  0.254600  0.279500  1.0  0.0587
  H  H1313  1  0.170600  0.290000  0.265100  1.0  0.0527
  H  H1314  1  0.184800  0.276600  0.338900  1.0  0.0752
  H  H1315  1  0.193200  0.309600  0.347500  1.0  0.0613
  H  H1316  1  0.239800  0.301200  0.336100  1.0  0.0413
  H  H1317  1  0.231700  0.267800  0.329100  1.0  0.0569
  H  H1318  1  0.133400  0.389000  0.326900  1.0  0.0702
  H  H1319  1  0.163700  0.376500  0.339400  1.0  0.0628
  H  H1320  1  0.086600  0.371000  0.346200  1.0  0.0753
  H  H1321  1  0.143500  0.354200  0.261400  1.0  0.0859
  H  H1322  1  0.122200  0.375000  0.280100  1.0  0.0581
  H  H1323  1  0.094900  0.294900  0.255500  1.0  0.0589
  H  H1324  1  0.126600  0.306200  0.245300  1.0  0.046
  H  H1325  1  0.074000  0.356800  0.294400  1.0  0.0481
  H  H1326  1  0.064100  0.324900  0.283400  1.0  0.0533
  H  H1327  1  0.814000  0.838900  0.376400  1.0  0.0456
  H  H1328  1  0.810400  0.785600  0.347600  1.0  0.0672
  H  H1329  1  0.717000  0.754600  0.279500  1.0  0.0587
  H  H1330  1  0.670600  0.790000  0.265100  1.0  0.0531
  H  H1331  1  0.684800  0.776600  0.338900  1.0  0.0752
  H  H1332  1  0.693200  0.809600  0.347500  1.0  0.0613
  H  H1333  1  0.739800  0.801200  0.336100  1.0  0.0413
  H  H1334  1  0.731700  0.767800  0.329100  1.0  0.0569
  H  H1335  1  0.633400  0.889000  0.326900  1.0  0.0702
  H  H1336  1  0.663700  0.876500  0.339400  1.0  0.0635
  H  H1337  1  0.586600  0.871000  0.346200  1.0  0.0753
  H  H1338  1  0.643500  0.854200  0.261400  1.0  0.0859
  H  H1339  1  0.622200  0.875000  0.280100  1.0  0.0581
  H  H1340  1  0.594900  0.794900  0.255500  1.0  0.0589
  H  H1341  1  0.626600  0.806200  0.245300  1.0  0.046
  H  H1342  1  0.574000  0.856800  0.294400  1.0  0.0481
  H  H1343  1  0.564100  0.824900  0.283400  1.0  0.0533
  H  H1344  1  0.814000  0.338900  0.876400  1.0  0.0445
  H  H1345  1  0.810400  0.285600  0.847600  1.0  0.0678
  H  H1346  1  0.717000  0.254600  0.779500  1.0  0.0579
  H  H1347  1  0.670600  0.290000  0.765100  1.0  0.0527
  H  H1348  1  0.684800  0.276600  0.838900  1.0  0.0752
  H  H1349  1  0.693200  0.309600  0.847500  1.0  0.0613
  H  H1350  1  0.739800  0.301200  0.836100  1.0  0.0413
  H  H1351  1  0.731700  0.267800  0.829100  1.0  0.0569
  H  H1352  1  0.633400  0.389000  0.826900  1.0  0.0713
  H  H1353  1  0.663700  0.376500  0.839400  1.0  0.0628
  H  H1354  1  0.586600  0.371000  0.846200  1.0  0.0757
  H  H1355  1  0.643500  0.354200  0.761400  1.0  0.0859
  H  H1356  1  0.622200  0.375000  0.780100  1.0  0.0581
  H  H1357  1  0.594900  0.294900  0.755500  1.0  0.0589
  H  H1358  1  0.626600  0.306200  0.745300  1.0  0.046
  H  H1359  1  0.574000  0.356800  0.794400  1.0  0.0481
  H  H1360  1  0.564100  0.324900  0.783400  1.0  0.0533
  H  H1361  1  0.814000  0.911100  0.373600  1.0  0.0452
  H  H1362  1  0.810400  0.964400  0.402400  1.0  0.0664
  H  H1363  1  0.717000  0.995400  0.470500  1.0  0.0596
  H  H1364  1  0.670600  0.960000  0.484900  1.0  0.0541
  H  H1365  1  0.684800  0.973400  0.411100  1.0  0.0759
  H  H1366  1  0.693200  0.940400  0.402500  1.0  0.0625
  H  H1367  1  0.739800  0.948800  0.413900  1.0  0.0404
  H  H1368  1  0.731700  0.982200  0.420900  1.0  0.0558
  H  H1369  1  0.633400  0.861000  0.423100  1.0  0.0703
  H  H1370  1  0.663700  0.873500  0.410600  1.0  0.0639
  H  H1371  1  0.586600  0.879000  0.403800  1.0  0.0749
  H  H1372  1  0.643500  0.895800  0.488600  1.0  0.0842
  H  H1373  1  0.622200  0.875000  0.469900  1.0  0.0567
  H  H1374  1  0.594900  0.955100  0.494500  1.0  0.0618
  H  H1375  1  0.626600  0.943800  0.504700  1.0  0.0472
  H  H1376  1  0.574000  0.893200  0.455600  1.0  0.0471
  H  H1377  1  0.564100  0.925100  0.466600  1.0  0.0545
  H  H1378  1  0.814000  0.411100  0.873600  1.0  0.0457
  H  H1379  1  0.810400  0.464400  0.902400  1.0  0.0664
  H  H1380  1  0.717000  0.495400  0.970500  1.0  0.0604
  H  H1381  1  0.670600  0.460000  0.984900  1.0  0.0541
  H  H1382  1  0.684800  0.473400  0.911100  1.0  0.0759
  H  H1383  1  0.693200  0.440400  0.902500  1.0  0.0625
  H  H1384  1  0.739800  0.448800  0.913900  1.0  0.0404
  H  H1385  1  0.731700  0.482200  0.920900  1.0  0.0558
  H  H1386  1  0.633400  0.361000  0.923100  1.0  0.0713
  H  H1387  1  0.663700  0.373500  0.910600  1.0  0.0639
  H  H1388  1  0.586600  0.379000  0.903800  1.0  0.0749
  H  H1389  1  0.643500  0.395800  0.988600  1.0  0.0842
  H  H1390  1  0.622200  0.375000  0.969900  1.0  0.0567
  H  H1391  1  0.594900  0.455100  0.994500  1.0  0.0618
  H  H1392  1  0.626600  0.443800  0.004700  1.0  0.0472
  H  H1393  1  0.574000  0.393200  0.955600  1.0  0.0471
  H  H1394  1  0.564100  0.425100  0.966600  1.0  0.0545
  H  H1395  1  0.314000  0.911100  0.873600  1.0  0.0447
  H  H1396  1  0.310400  0.964400  0.902400  1.0  0.0664
  H  H1397  1  0.217000  0.995400  0.970500  1.0  0.0596
  H  H1398  1  0.170600  0.960000  0.984900  1.0  0.0541
  H  H1399  1  0.184800  0.973400  0.911100  1.0  0.0759
  H  H1400  1  0.193200  0.940400  0.902500  1.0  0.0625
  H  H1401  1  0.239800  0.948800  0.913900  1.0  0.0404
  H  H1402  1  0.231700  0.982200  0.920900  1.0  0.0558
  H  H1403  1  0.133400  0.861000  0.923100  1.0  0.0713
  H  H1404  1  0.163700  0.873500  0.910600  1.0  0.0639
  H  H1405  1  0.086600  0.879000  0.903800  1.0  0.0749
  H  H1406  1  0.143500  0.895800  0.988600  1.0  0.0842
  H  H1407  1  0.122200  0.875000  0.969900  1.0  0.0567
  H  H1408  1  0.094900  0.955100  0.994500  1.0  0.0618
  H  H1409  1  0.126600  0.943800  0.004700  1.0  0.0472
  H  H1410  1  0.074000  0.893200  0.955600  1.0  0.0471
  H  H1411  1  0.064100  0.925100  0.966600  1.0  0.0545
  H  H1412  1  0.314000  0.411100  0.373600  1.0  0.0446
  H  H1413  1  0.310400  0.464400  0.402400  1.0  0.0664
  H  H1414  1  0.217000  0.495400  0.470500  1.0  0.0604
  H  H1415  1  0.170600  0.460000  0.484900  1.0  0.0535
  H  H1416  1  0.184800  0.473400  0.411100  1.0  0.0759
  H  H1417  1  0.193200  0.440400  0.402500  1.0  0.0625
  H  H1418  1  0.239800  0.448800  0.413900  1.0  0.0404
  H  H1419  1  0.231700  0.482200  0.420900  1.0  0.0558
  H  H1420  1  0.133400  0.361000  0.423100  1.0  0.0703
  H  H1421  1  0.163700  0.373500  0.410600  1.0  0.0639
  H  H1422  1  0.086600  0.379000  0.403800  1.0  0.0749
  H  H1423  1  0.143500  0.395800  0.488600  1.0  0.0842
  H  H1424  1  0.122200  0.375000  0.469900  1.0  0.0567
  H  H1425  1  0.094900  0.455100  0.494500  1.0  0.0618
  H  H1426  1  0.126600  0.443800  0.504700  1.0  0.0472
  H  H1427  1  0.074000  0.393200  0.455600  1.0  0.0471
  H  H1428  1  0.064100  0.425100  0.466600  1.0  0.0545
  H  H1429  1  0.436000  0.411100  0.376400  1.0  0.0441
  H  H1430  1  0.439600  0.464400  0.347600  1.0  0.0655
  H  H1431  1  0.533000  0.495400  0.279500  1.0  0.06
  H  H1432  1  0.579400  0.460000  0.265100  1.0  0.0537
  H  H1433  1  0.565200  0.473400  0.338900  1.0  0.0725
  H  H1434  1  0.556800  0.440400  0.347500  1.0  0.063
  H  H1435  1  0.510200  0.448800  0.336100  1.0  0.0428
  H  H1436  1  0.518300  0.482200  0.329100  1.0  0.0547
  H  H1437  1  0.616600  0.361000  0.326900  1.0  0.0696
  H  H1438  1  0.586300  0.373500  0.339400  1.0  0.063
  H  H1439  1  0.663400  0.379000  0.346200  1.0  0.0776
  H  H1440  1  0.606500  0.395800  0.261400  1.0  0.0839
  H  H1441  1  0.627800  0.375000  0.280100  1.0  0.0596
  H  H1442  1  0.655100  0.455100  0.255500  1.0  0.0621
  H  H1443  1  0.623400  0.443800  0.245300  1.0  0.0488
  H  H1444  1  0.676000  0.393200  0.294400  1.0  0.0491
  H  H1445  1  0.685900  0.425100  0.283400  1.0  0.0552
  H  H1446  1  0.436000  0.911100  0.876400  1.0  0.0423
  H  H1447  1  0.439600  0.964400  0.847600  1.0  0.067
  H  H1448  1  0.533000  0.995400  0.779500  1.0  0.0591
  H  H1449  1  0.579400  0.960000  0.765100  1.0  0.0541
  H  H1450  1  0.565200  0.973400  0.838900  1.0  0.0725
  H  H1451  1  0.556800  0.940400  0.847500  1.0  0.063
  H  H1452  1  0.510200  0.948800  0.836100  1.0  0.0428
  H  H1453  1  0.518300  0.982200  0.829100  1.0  0.0547
  H  H1454  1  0.616600  0.861000  0.826900  1.0  0.0708
  H  H1455  1  0.586300  0.873500  0.839400  1.0  0.063
  H  H1456  1  0.663400  0.879000  0.846200  1.0  0.0776
  H  H1457  1  0.606500  0.895800  0.761400  1.0  0.0839
  H  H1458  1  0.627800  0.875000  0.780100  1.0  0.0596
  H  H1459  1  0.655100  0.955100  0.755500  1.0  0.0621
  H  H1460  1  0.623400  0.943800  0.745300  1.0  0.0488
  H  H1461  1  0.676000  0.893200  0.794400  1.0  0.0491
  H  H1462  1  0.685900  0.925100  0.783400  1.0  0.0552
  H  H1463  1  0.936000  0.411100  0.876400  1.0  0.0439
  H  H1464  1  0.939600  0.464400  0.847600  1.0  0.0659
  H  H1465  1  0.033000  0.495400  0.779500  1.0  0.0591
  H  H1466  1  0.079400  0.460000  0.765100  1.0  0.0537
  H  H1467  1  0.065200  0.473400  0.838900  1.0  0.0725
  H  H1468  1  0.056800  0.440400  0.847500  1.0  0.063
  H  H1469  1  0.010200  0.448800  0.836100  1.0  0.0428
  H  H1470  1  0.018300  0.482200  0.829100  1.0  0.0547
  H  H1471  1  0.116600  0.361000  0.826900  1.0  0.0708
  H  H1472  1  0.086300  0.373500  0.839400  1.0  0.0623
  H  H1473  1  0.163400  0.379000  0.846200  1.0  0.0773
  H  H1474  1  0.106500  0.395800  0.761400  1.0  0.0839
  H  H1475  1  0.127800  0.375000  0.780100  1.0  0.0596
  H  H1476  1  0.155100  0.455100  0.755500  1.0  0.0621
  H  H1477  1  0.123400  0.443800  0.745300  1.0  0.0488
  H  H1478  1  0.176000  0.393200  0.794400  1.0  0.0491
  H  H1479  1  0.185900  0.425100  0.783400  1.0  0.0552
  H  H1480  1  0.936000  0.911100  0.376400  1.0  0.0432
  H  H1481  1  0.939600  0.964400  0.347600  1.0  0.0644
  H  H1482  1  0.033000  0.995400  0.279500  1.0  0.0591
  H  H1483  1  0.079400  0.960000  0.265100  1.0  0.0541
  H  H1484  1  0.065200  0.973400  0.338900  1.0  0.0725
  H  H1485  1  0.056800  0.940400  0.347500  1.0  0.063
  H  H1486  1  0.010200  0.948800  0.336100  1.0  0.0428
  H  H1487  1  0.018300  0.982200  0.329100  1.0  0.0547
  H  H1488  1  0.116600  0.861000  0.326900  1.0  0.0696
  H  H1489  1  0.086300  0.873500  0.339400  1.0  0.063
  H  H1490  1  0.163400  0.879000  0.346200  1.0  0.0773
  H  H1491  1  0.106500  0.895800  0.261400  1.0  0.0839
  H  H1492  1  0.127800  0.875000  0.280100  1.0  0.0596
  H  H1493  1  0.155100  0.955100  0.255500  1.0  0.0621
  H  H1494  1  0.123400  0.943800  0.245300  1.0  0.0488
  H  H1495  1  0.176000  0.893200  0.294400  1.0  0.0491
  H  H1496  1  0.185900  0.925100  0.283400  1.0  0.0552
  H  H1497  1  0.838900  0.876400  0.314000  1.0  0.0457
  H  H1498  1  0.785600  0.847600  0.310400  1.0  0.0662
  H  H1499  1  0.754600  0.779500  0.217000  1.0  0.0477
  H  H1500  1  0.790000  0.765100  0.170600  1.0  0.0555
  H  H1501  1  0.776600  0.838900  0.184800  1.0  0.0733
  H  H1502  1  0.809600  0.847500  0.193200  1.0  0.0642
  H  H1503  1  0.801200  0.836100  0.239800  1.0  0.044
  H  H1504  1  0.767800  0.829100  0.231700  1.0  0.0535
  H  H1505  1  0.889000  0.826900  0.133400  1.0  0.0726
  H  H1506  1  0.876500  0.839400  0.163700  1.0  0.0641
  H  H1507  1  0.871000  0.846200  0.086600  1.0  0.0796
  H  H1508  1  0.854200  0.761400  0.143500  1.0  0.082
  H  H1509  1  0.875000  0.780100  0.122200  1.0  0.0579
  H  H1510  1  0.794900  0.755500  0.094900  1.0  0.0524
  H  H1511  1  0.806200  0.745300  0.126600  1.0  0.0547
  H  H1512  1  0.856800  0.794400  0.074000  1.0  0.0512
  H  H1513  1  0.824900  0.783400  0.064100  1.0  0.0555
  H  H1514  1  0.838900  0.376400  0.814000  1.0  0.0453
  H  H1515  1  0.785600  0.347600  0.810400  1.0  0.0659
  H  H1516  1  0.754600  0.279500  0.717000  1.0  0.0492
  H  H1517  1  0.790000  0.265100  0.670600  1.0  0.0555
  H  H1518  1  0.776600  0.338900  0.684800  1.0  0.0733
  H  H1519  1  0.809600  0.347500  0.693200  1.0  0.0642
  H  H1520  1  0.801200  0.336100  0.739800  1.0  0.044
  H  H1521  1  0.767800  0.329100  0.731700  1.0  0.0535
  H  H1522  1  0.889000  0.326900  0.633400  1.0  0.0713
  H  H1523  1  0.876500  0.339400  0.663700  1.0  0.0676
  H  H1524  1  0.871000  0.346200  0.586600  1.0  0.079
  H  H1525  1  0.854200  0.261400  0.643500  1.0  0.082
  H  H1526  1  0.875000  0.280100  0.622200  1.0  0.0579
  H  H1527  1  0.794900  0.255500  0.594900  1.0  0.0524
  H  H1528  1  0.806200  0.245300  0.626600  1.0  0.0547
  H  H1529  1  0.856800  0.294400  0.574000  1.0  0.0512
  H  H1530  1  0.824900  0.283400  0.564100  1.0  0.0555
  H  H1531  1  0.338900  0.876400  0.814000  1.0  0.0453
  H  H1532  1  0.285600  0.847600  0.810400  1.0  0.0662
  H  H1533  1  0.254600  0.779500  0.717000  1.0  0.0477
  H  H1534  1  0.290000  0.765100  0.670600  1.0  0.055
  H  H1535  1  0.276600  0.838900  0.684800  1.0  0.0733
  H  H1536  1  0.309600  0.847500  0.693200  1.0  0.0642
  H  H1537  1  0.301200  0.836100  0.739800  1.0  0.044
  H  H1538  1  0.267800  0.829100  0.731700  1.0  0.0535
  H  H1539  1  0.389000  0.826900  0.633400  1.0  0.0726
  H  H1540  1  0.376500  0.839400  0.663700  1.0  0.0671
  H  H1541  1  0.371000  0.846200  0.586600  1.0  0.0796
  H  H1542  1  0.354200  0.761400  0.643500  1.0  0.082
  H  H1543  1  0.375000  0.780100  0.622200  1.0  0.0579
  H  H1544  1  0.294900  0.755500  0.594900  1.0  0.0524
  H  H1545  1  0.306200  0.745300  0.626600  1.0  0.0547
  H  H1546  1  0.356800  0.794400  0.574000  1.0  0.0512
  H  H1547  1  0.324900  0.783400  0.564100  1.0  0.0555
  H  H1548  1  0.338900  0.376400  0.314000  1.0  0.0452
  H  H1549  1  0.285600  0.347600  0.310400  1.0  0.0662
  H  H1550  1  0.254600  0.279500  0.217000  1.0  0.0492
  H  H1551  1  0.290000  0.265100  0.170600  1.0  0.055
  H  H1552  1  0.276600  0.338900  0.184800  1.0  0.0733
  H  H1553  1  0.309600  0.347500  0.193200  1.0  0.0642
  H  H1554  1  0.301200  0.336100  0.239800  1.0  0.044
  H  H1555  1  0.267800  0.329100  0.231700  1.0  0.0535
  H  H1556  1  0.389000  0.326900  0.133400  1.0  0.0713
  H  H1557  1  0.376500  0.339400  0.163700  1.0  0.0676
  H  H1558  1  0.371000  0.346200  0.086600  1.0  0.0796
  H  H1559  1  0.354200  0.261400  0.143500  1.0  0.082
  H  H1560  1  0.375000  0.280100  0.122200  1.0  0.0579
  H  H1561  1  0.294900  0.255500  0.094900  1.0  0.0524
  H  H1562  1  0.306200  0.245300  0.126600  1.0  0.0547
  H  H1563  1  0.356800  0.294400  0.074000  1.0  0.0512
  H  H1564  1  0.324900  0.283400  0.064100  1.0  0.0555
  H  H1565  1  0.338900  0.873600  0.936000  1.0  0.046
  H  H1566  1  0.285600  0.902400  0.939600  1.0  0.065
  H  H1567  1  0.254600  0.970500  0.033000  1.0  0.0501
  H  H1568  1  0.290000  0.984900  0.079400  1.0  0.0571
  H  H1569  1  0.276600  0.911100  0.065200  1.0  0.0742
  H  H1570  1  0.309600  0.902500  0.056800  1.0  0.0644
  H  H1571  1  0.301200  0.913900  0.010200  1.0  0.0423
  H  H1572  1  0.267800  0.920900  0.018300  1.0  0.0532
  H  H1573  1  0.389000  0.923100  0.116600  1.0  0.0695
  H  H1574  1  0.376500  0.910600  0.086300  1.0  0.0672
  H  H1575  1  0.371000  0.903800  0.163400  1.0  0.0799
  H  H1576  1  0.354200  0.988600  0.106500  1.0  0.0848
  H  H1577  1  0.375000  0.969900  0.127800  1.0  0.0581
  H  H1578  1  0.294900  0.994500  0.155100  1.0  0.0523
  H  H1579  1  0.306200  0.004700  0.123400  1.0  0.0525
  H  H1580  1  0.356800  0.955600  0.176000  1.0  0.0516
  H  H1581  1  0.324900  0.966600  0.185900  1.0  0.0549
  H  H1582  1  0.338900  0.373600  0.436000  1.0  0.046
  H  H1583  1  0.285600  0.402400  0.439600  1.0  0.065
  H  H1584  1  0.254600  0.470500  0.533000  1.0  0.0517
  H  H1585  1  0.290000  0.484900  0.579400  1.0  0.0567
  H  H1586  1  0.276600  0.411100  0.565200  1.0  0.0742
  H  H1587  1  0.309600  0.402500  0.556800  1.0  0.0644
  H  H1588  1  0.301200  0.413900  0.510200  1.0  0.0423
  H  H1589  1  0.267800  0.420900  0.518300  1.0  0.0532
  H  H1590  1  0.389000  0.423100  0.616600  1.0  0.0684
  H  H1591  1  0.376500  0.410600  0.586300  1.0  0.0672
  H  H1592  1  0.371000  0.403800  0.663400  1.0  0.0793
  H  H1593  1  0.354200  0.488600  0.606500  1.0  0.0848
  H  H1594  1  0.375000  0.469900  0.627800  1.0  0.0581
  H  H1595  1  0.294900  0.494500  0.655100  1.0  0.0523
  H  H1596  1  0.306200  0.504700  0.623400  1.0  0.0525
  H  H1597  1  0.356800  0.455600  0.676000  1.0  0.0516
  H  H1598  1  0.324900  0.466600  0.685900  1.0  0.0549
  H  H1599  1  0.838900  0.873600  0.436000  1.0  0.046
  H  H1600  1  0.785600  0.902400  0.439600  1.0  0.0656
  H  H1601  1  0.754600  0.970500  0.533000  1.0  0.0501
  H  H1602  1  0.790000  0.984900  0.579400  1.0  0.0571
  H  H1603  1  0.776600  0.911100  0.565200  1.0  0.0742
  H  H1604  1  0.809600  0.902500  0.556800  1.0  0.0644
  H  H1605  1  0.801200  0.913900  0.510200  1.0  0.0423
  H  H1606  1  0.767800  0.920900  0.518300  1.0  0.0532
  H  H1607  1  0.889000  0.923100  0.616600  1.0  0.0695
  H  H1608  1  0.876500  0.910600  0.586300  1.0  0.0672
  H  H1609  1  0.871000  0.903800  0.663400  1.0  0.0799
  H  H1610  1  0.854200  0.988600  0.606500  1.0  0.0848
  H  H1611  1  0.875000  0.969900  0.627800  1.0  0.0581
  H  H1612  1  0.794900  0.994500  0.655100  1.0  0.0523
  H  H1613  1  0.806200  0.004700  0.623400  1.0  0.0525
  H  H1614  1  0.856800  0.955600  0.676000  1.0  0.0516
  H  H1615  1  0.824900  0.966600  0.685900  1.0  0.0549
  H  H1616  1  0.838900  0.373600  0.936000  1.0  0.046
  H  H1617  1  0.785600  0.402400  0.939600  1.0  0.0656
  H  H1618  1  0.754600  0.470500  0.033000  1.0  0.0517
  H  H1619  1  0.790000  0.484900  0.079400  1.0  0.0571
  H  H1620  1  0.776600  0.411100  0.065200  1.0  0.0742
  H  H1621  1  0.809600  0.402500  0.056800  1.0  0.0644
  H  H1622  1  0.801200  0.413900  0.010200  1.0  0.0423
  H  H1623  1  0.767800  0.420900  0.018300  1.0  0.0532
  H  H1624  1  0.889000  0.423100  0.116600  1.0  0.0684
  H  H1625  1  0.876500  0.410600  0.086300  1.0  0.0672
  H  H1626  1  0.871000  0.403800  0.163400  1.0  0.0793
  H  H1627  1  0.854200  0.488600  0.106500  1.0  0.0848
  H  H1628  1  0.875000  0.469900  0.127800  1.0  0.0581
  H  H1629  1  0.794900  0.494500  0.155100  1.0  0.0523
  H  H1630  1  0.806200  0.504700  0.123400  1.0  0.0525
  H  H1631  1  0.856800  0.455600  0.176000  1.0  0.0516
  H  H1632  1  0.824900  0.466600  0.185900  1.0  0.0549
  H  H1633  1  0.411100  0.376400  0.436000  1.0  0.0456
  H  H1634  1  0.464400  0.347600  0.439600  1.0  0.0648
  H  H1635  1  0.495400  0.279500  0.533000  1.0  0.0504
  H  H1636  1  0.460000  0.265100  0.579400  1.0  0.0572
  H  H1637  1  0.473400  0.338900  0.565200  1.0  0.0739
  H  H1638  1  0.440400  0.347500  0.556800  1.0  0.0649
  H  H1639  1  0.448800  0.336100  0.510200  1.0  0.0436
  H  H1640  1  0.482200  0.329100  0.518300  1.0  0.0527
  H  H1641  1  0.361000  0.326900  0.616600  1.0  0.0689
  H  H1642  1  0.373500  0.339400  0.586300  1.0  0.0666
  H  H1643  1  0.379000  0.346200  0.663400  1.0  0.0798
  H  H1644  1  0.395800  0.261400  0.606500  1.0  0.0855
  H  H1645  1  0.375000  0.280100  0.627800  1.0  0.0581
  H  H1646  1  0.455100  0.255500  0.655100  1.0  0.0536
  H  H1647  1  0.443800  0.245300  0.623400  1.0  0.0537
  H  H1648  1  0.393200  0.294400  0.676000  1.0  0.0499
  H  H1649  1  0.425100  0.283400  0.685900  1.0  0.056
  H  H1650  1  0.411100  0.876400  0.936000  1.0  0.0454
  H  H1651  1  0.464400  0.847600  0.939600  1.0  0.0657
  H  H1652  1  0.495400  0.779500  0.033000  1.0  0.0487
  H  H1653  1  0.460000  0.765100  0.079400  1.0  0.0572
  H  H1654  1  0.473400  0.838900  0.065200  1.0  0.0739
  H  H1655  1  0.440400  0.847500  0.056800  1.0  0.0649
  H  H1656  1  0.448800  0.836100  0.010200  1.0  0.0436
  H  H1657  1  0.482200  0.829100  0.018300  1.0  0.0527
  H  H1658  1  0.361000  0.826900  0.116600  1.0  0.07
  H  H1659  1  0.373500  0.839400  0.086300  1.0  0.066
  H  H1660  1  0.379000  0.846200  0.163400  1.0  0.079
  H  H1661  1  0.395800  0.761400  0.106500  1.0  0.0855
  H  H1662  1  0.375000  0.780100  0.127800  1.0  0.0581
  H  H1663  1  0.455100  0.755500  0.155100  1.0  0.0536
  H  H1664  1  0.443800  0.745300  0.123400  1.0  0.0537
  H  H1665  1  0.393200  0.794400  0.176000  1.0  0.0499
  H  H1666  1  0.425100  0.783400  0.185900  1.0  0.056
  H  H1667  1  0.911100  0.376400  0.936000  1.0  0.0454
  H  H1668  1  0.964400  0.347600  0.939600  1.0  0.0624
  H  H1669  1  0.995400  0.279500  0.033000  1.0  0.0487
  H  H1670  1  0.960000  0.265100  0.079400  1.0  0.0576
  H  H1671  1  0.973400  0.338900  0.065200  1.0  0.0739
  H  H1672  1  0.940400  0.347500  0.056800  1.0  0.0649
  H  H1673  1  0.948800  0.336100  0.010200  1.0  0.0436
  H  H1674  1  0.982200  0.329100  0.018300  1.0  0.0527
  H  H1675  1  0.861000  0.326900  0.116600  1.0  0.0689
  H  H1676  1  0.873500  0.339400  0.086300  1.0  0.0666
  H  H1677  1  0.879000  0.346200  0.163400  1.0  0.079
  H  H1678  1  0.895800  0.261400  0.106500  1.0  0.0855
  H  H1679  1  0.875000  0.280100  0.127800  1.0  0.0581
  H  H1680  1  0.955100  0.255500  0.155100  1.0  0.0536
  H  H1681  1  0.943800  0.245300  0.123400  1.0  0.0537
  H  H1682  1  0.893200  0.294400  0.176000  1.0  0.0499
  H  H1683  1  0.925100  0.283400  0.185900  1.0  0.056
  H  H1684  1  0.911100  0.876400  0.436000  1.0  0.0433
  H  H1685  1  0.964400  0.847600  0.439600  1.0  0.0666
  H  H1686  1  0.995400  0.779500  0.533000  1.0  0.0487
  H  H1687  1  0.960000  0.765100  0.579400  1.0  0.0576
  H  H1688  1  0.973400  0.838900  0.565200  1.0  0.0739
  H  H1689  1  0.940400  0.847500  0.556800  1.0  0.0649
  H  H1690  1  0.948800  0.836100  0.510200  1.0  0.0436
  H  H1691  1  0.982200  0.829100  0.518300  1.0  0.0527
  H  H1692  1  0.861000  0.826900  0.616600  1.0  0.07
  H  H1693  1  0.873500  0.839400  0.586300  1.0  0.0666
  H  H1694  1  0.879000  0.846200  0.663400  1.0  0.079
  H  H1695  1  0.895800  0.761400  0.606500  1.0  0.0855
  H  H1696  1  0.875000  0.780100  0.627800  1.0  0.0581
  H  H1697  1  0.955100  0.755500  0.655100  1.0  0.0536
  H  H1698  1  0.943800  0.745300  0.623400  1.0  0.0537
  H  H1699  1  0.893200  0.794400  0.676000  1.0  0.0499
  H  H1700  1  0.925100  0.783400  0.685900  1.0  0.056
  H  H1701  1  0.911100  0.373600  0.814000  1.0  0.0451
  H  H1702  1  0.964400  0.402400  0.810400  1.0  0.0649
  H  H1703  1  0.995400  0.470500  0.717000  1.0  0.049
  H  H1704  1  0.960000  0.484900  0.670600  1.0  0.0563
  H  H1705  1  0.973400  0.411100  0.684800  1.0  0.0735
  H  H1706  1  0.940400  0.402500  0.693200  1.0  0.0659
  H  H1707  1  0.948800  0.413900  0.739800  1.0  0.0446
  H  H1708  1  0.982200  0.420900  0.731700  1.0  0.0526
  H  H1709  1  0.861000  0.423100  0.633400  1.0  0.0682
  H  H1710  1  0.873500  0.410600  0.663700  1.0  0.0683
  H  H1711  1  0.879000  0.403800  0.586600  1.0  0.0783
  H  H1712  1  0.895800  0.488600  0.643500  1.0  0.0819
  H  H1713  1  0.875000  0.469900  0.622200  1.0  0.0585
  H  H1714  1  0.955100  0.494500  0.594900  1.0  0.0538
  H  H1715  1  0.943800  0.504700  0.626600  1.0  0.054
  H  H1716  1  0.893200  0.455600  0.574000  1.0  0.0502
  H  H1717  1  0.925100  0.466600  0.564100  1.0  0.0564
  H  H1718  1  0.911100  0.873600  0.314000  1.0  0.0451
  H  H1719  1  0.964400  0.902400  0.310400  1.0  0.0649
  H  H1720  1  0.995400  0.970500  0.217000  1.0  0.049
  H  H1721  1  0.960000  0.984900  0.170600  1.0  0.0563
  H  H1722  1  0.973400  0.911100  0.184800  1.0  0.0735
  H  H1723  1  0.940400  0.902500  0.193200  1.0  0.0659
  H  H1724  1  0.948800  0.913900  0.239800  1.0  0.0446
  H  H1725  1  0.982200  0.920900  0.231700  1.0  0.0526
  H  H1726  1  0.861000  0.923100  0.133400  1.0  0.0682
  H  H1727  1  0.873500  0.910600  0.163700  1.0  0.0683
  H  H1728  1  0.879000  0.903800  0.086600  1.0  0.0783
  H  H1729  1  0.895800  0.988600  0.143500  1.0  0.0819
  H  H1730  1  0.875000  0.969900  0.122200  1.0  0.0585
  H  H1731  1  0.955100  0.994500  0.094900  1.0  0.0538
  H  H1732  1  0.943800  0.004700  0.126600  1.0  0.054
  H  H1733  1  0.893200  0.955600  0.074000  1.0  0.0502
  H  H1734  1  0.925100  0.966600  0.064100  1.0  0.0564
  H  H1735  1  0.411100  0.373600  0.314000  1.0  0.0456
  H  H1736  1  0.464400  0.402400  0.310400  1.0  0.0649
  H  H1737  1  0.495400  0.470500  0.217000  1.0  0.0506
  H  H1738  1  0.460000  0.484900  0.170600  1.0  0.0563
  H  H1739  1  0.473400  0.411100  0.184800  1.0  0.0735
  H  H1740  1  0.440400  0.402500  0.193200  1.0  0.0659
  H  H1741  1  0.448800  0.413900  0.239800  1.0  0.0446
  H  H1742  1  0.482200  0.420900  0.231700  1.0  0.0526
  H  H1743  1  0.361000  0.423100  0.133400  1.0  0.0682
  H  H1744  1  0.373500  0.410600  0.163700  1.0  0.0683
  H  H1745  1  0.379000  0.403800  0.086600  1.0  0.0783
  H  H1746  1  0.395800  0.488600  0.143500  1.0  0.0819
  H  H1747  1  0.375000  0.469900  0.122200  1.0  0.0585
  H  H1748  1  0.455100  0.494500  0.094900  1.0  0.0538
  H  H1749  1  0.443800  0.504700  0.126600  1.0  0.054
  H  H1750  1  0.393200  0.455600  0.074000  1.0  0.0502
  H  H1751  1  0.425100  0.466600  0.064100  1.0  0.0564
  H  H1752  1  0.411100  0.873600  0.814000  1.0  0.0456
  H  H1753  1  0.464400  0.902400  0.810400  1.0  0.0649
  H  H1754  1  0.495400  0.970500  0.717000  1.0  0.049
  H  H1755  1  0.460000  0.984900  0.670600  1.0  0.0563
  H  H1756  1  0.473400  0.911100  0.684800  1.0  0.0735
  H  H1757  1  0.440400  0.902500  0.693200  1.0  0.0659
  H  H1758  1  0.448800  0.913900  0.739800  1.0  0.0446
  H  H1759  1  0.482200  0.920900  0.731700  1.0  0.0526
  H  H1760  1  0.361000  0.923100  0.633400  1.0  0.0694
  H  H1761  1  0.373500  0.910600  0.663700  1.0  0.0683
  H  H1762  1  0.379000  0.903800  0.586600  1.0  0.0783
  H  H1763  1  0.395800  0.988600  0.643500  1.0  0.0819
  H  H1764  1  0.375000  0.969900  0.622200  1.0  0.0585
  H  H1765  1  0.455100  0.994500  0.594900  1.0  0.0538
  H  H1766  1  0.443800  0.004700  0.626600  1.0  0.054
  H  H1767  1  0.393200  0.955600  0.574000  1.0  0.0502
  H  H1768  1  0.425100  0.966600  0.564100  1.0  0.0564
  H  H1769  1  0.814000  0.373600  0.911100  1.0  0.0446
  H  H1770  1  0.810400  0.402400  0.964400  1.0  0.0672
  H  H1771  1  0.717000  0.470500  0.995400  1.0  0.0578
  H  H1772  1  0.670600  0.484900  0.960000  1.0  0.0563
  H  H1773  1  0.684800  0.411100  0.973400  1.0  0.0759
  H  H1774  1  0.693200  0.402500  0.940400  1.0  0.0591
  H  H1775  1  0.739800  0.413900  0.948800  1.0  0.0399
  H  H1776  1  0.731700  0.420900  0.982200  1.0  0.0578
  H  H1777  1  0.633400  0.423100  0.861000  1.0  0.0685
  H  H1778  1  0.663700  0.410600  0.873500  1.0  0.0576
  H  H1779  1  0.586600  0.403800  0.879000  1.0  0.0763
  H  H1780  1  0.643500  0.488600  0.895800  1.0  0.0881
  H  H1781  1  0.622200  0.469900  0.875000  1.0  0.0577
  H  H1782  1  0.594900  0.494500  0.955100  1.0  0.0592
  H  H1783  1  0.626600  0.504700  0.943800  1.0  0.0503
  H  H1784  1  0.574000  0.455600  0.893200  1.0  0.0473
  H  H1785  1  0.564100  0.466600  0.925100  1.0  0.0532
  H  H1786  1  0.814000  0.873600  0.411100  1.0  0.045
  H  H1787  1  0.810400  0.902400  0.464400  1.0  0.0672
  H  H1788  1  0.717000  0.970500  0.495400  1.0  0.0578
  H  H1789  1  0.670600  0.984900  0.460000  1.0  0.0563
  H  H1790  1  0.684800  0.911100  0.473400  1.0  0.0759
  H  H1791  1  0.693200  0.902500  0.440400  1.0  0.0591
  H  H1792  1  0.739800  0.913900  0.448800  1.0  0.0399
  H  H1793  1  0.731700  0.920900  0.482200  1.0  0.0578
  H  H1794  1  0.633400  0.923100  0.361000  1.0  0.0687
  H  H1795  1  0.663700  0.910600  0.373500  1.0  0.0557
  H  H1796  1  0.586600  0.903800  0.379000  1.0  0.0767
  H  H1797  1  0.643500  0.988600  0.395800  1.0  0.0881
  H  H1798  1  0.622200  0.969900  0.375000  1.0  0.0577
  H  H1799  1  0.594900  0.994500  0.455100  1.0  0.0592
  H  H1800  1  0.626600  0.004700  0.443800  1.0  0.0503
  H  H1801  1  0.574000  0.955600  0.393200  1.0  0.0473
  H  H1802  1  0.564100  0.966600  0.425100  1.0  0.0532
  H  H1803  1  0.314000  0.373600  0.411100  1.0  0.046
  H  H1804  1  0.310400  0.402400  0.464400  1.0  0.0672
  H  H1805  1  0.217000  0.470500  0.495400  1.0  0.059
  H  H1806  1  0.170600  0.484900  0.460000  1.0  0.056
  H  H1807  1  0.184800  0.411100  0.473400  1.0  0.0759
  H  H1808  1  0.193200  0.402500  0.440400  1.0  0.0591
  H  H1809  1  0.239800  0.413900  0.448800  1.0  0.0399
  H  H1810  1  0.231700  0.420900  0.482200  1.0  0.0578
  H  H1811  1  0.133400  0.423100  0.361000  1.0  0.0685
  H  H1812  1  0.163700  0.410600  0.373500  1.0  0.0576
  H  H1813  1  0.086600  0.403800  0.379000  1.0  0.0767
  H  H1814  1  0.143500  0.488600  0.395800  1.0  0.0881
  H  H1815  1  0.122200  0.469900  0.375000  1.0  0.0577
  H  H1816  1  0.094900  0.494500  0.455100  1.0  0.0592
  H  H1817  1  0.126600  0.504700  0.443800  1.0  0.0503
  H  H1818  1  0.074000  0.455600  0.393200  1.0  0.0473
  H  H1819  1  0.064100  0.466600  0.425100  1.0  0.0532
  H  H1820  1  0.314000  0.873600  0.911100  1.0  0.045
  H  H1821  1  0.310400  0.902400  0.964400  1.0  0.0672
  H  H1822  1  0.217000  0.970500  0.995400  1.0  0.0578
  H  H1823  1  0.170600  0.984900  0.960000  1.0  0.0563
  H  H1824  1  0.184800  0.911100  0.973400  1.0  0.0759
  H  H1825  1  0.193200  0.902500  0.940400  1.0  0.0591
  H  H1826  1  0.239800  0.913900  0.948800  1.0  0.0399
  H  H1827  1  0.231700  0.920900  0.982200  1.0  0.0578
  H  H1828  1  0.133400  0.923100  0.861000  1.0  0.0685
  H  H1829  1  0.163700  0.910600  0.873500  1.0  0.0576
  H  H1830  1  0.086600  0.903800  0.879000  1.0  0.0767
  H  H1831  1  0.143500  0.988600  0.895800  1.0  0.0881
  H  H1832  1  0.122200  0.969900  0.875000  1.0  0.0577
  H  H1833  1  0.094900  0.994500  0.955100  1.0  0.0592
  H  H1834  1  0.126600  0.004700  0.943800  1.0  0.0503
  H  H1835  1  0.074000  0.955600  0.893200  1.0  0.0473
  H  H1836  1  0.064100  0.966600  0.925100  1.0  0.0532
  H  H1837  1  0.436000  0.376400  0.411100  1.0  0.046
  H  H1838  1  0.439600  0.347600  0.464400  1.0  0.0653
  H  H1839  1  0.533000  0.279500  0.495400  1.0  0.058
  H  H1840  1  0.579400  0.265100  0.460000  1.0  0.057
  H  H1841  1  0.565200  0.338900  0.473400  1.0  0.0736
  H  H1842  1  0.556800  0.347500  0.440400  1.0  0.0598
  H  H1843  1  0.510200  0.336100  0.448800  1.0  0.0413
  H  H1844  1  0.518300  0.329100  0.482200  1.0  0.0558
  H  H1845  1  0.616600  0.326900  0.361000  1.0  0.0688
  H  H1846  1  0.586300  0.339400  0.373500  1.0  0.0565
  H  H1847  1  0.663400  0.346200  0.379000  1.0  0.0792
  H  H1848  1  0.606500  0.261400  0.395800  1.0  0.0867
  H  H1849  1  0.627800  0.280100  0.375000  1.0  0.0574
  H  H1850  1  0.655100  0.255500  0.455100  1.0  0.0592
  H  H1851  1  0.623400  0.245300  0.443800  1.0  0.0528
  H  H1852  1  0.676000  0.294400  0.393200  1.0  0.0486
  H  H1853  1  0.685900  0.283400  0.425100  1.0  0.0552
  H  H1854  1  0.436000  0.876400  0.911100  1.0  0.0443
  H  H1855  1  0.439600  0.847600  0.964400  1.0  0.0683
  H  H1856  1  0.533000  0.779500  0.995400  1.0  0.0567
  H  H1857  1  0.579400  0.765100  0.960000  1.0  0.0574
  H  H1858  1  0.565200  0.838900  0.973400  1.0  0.0736
  H  H1859  1  0.556800  0.847500  0.940400  1.0  0.0598
  H  H1860  1  0.510200  0.836100  0.948800  1.0  0.0413
  H  H1861  1  0.518300  0.829100  0.982200  1.0  0.0558
  H  H1862  1  0.616600  0.826900  0.861000  1.0  0.0692
  H  H1863  1  0.586300  0.839400  0.873500  1.0  0.0565
  H  H1864  1  0.663400  0.846200  0.879000  1.0  0.0792
  H  H1865  1  0.606500  0.761400  0.895800  1.0  0.0867
  H  H1866  1  0.627800  0.780100  0.875000  1.0  0.0574
  H  H1867  1  0.655100  0.755500  0.955100  1.0  0.0592
  H  H1868  1  0.623400  0.745300  0.943800  1.0  0.0528
  H  H1869  1  0.676000  0.794400  0.893200  1.0  0.0486
  H  H1870  1  0.685900  0.783400  0.925100  1.0  0.0552
  H  H1871  1  0.936000  0.376400  0.911100  1.0  0.0457
  H  H1872  1  0.939600  0.347600  0.964400  1.0  0.0633
  H  H1873  1  0.033000  0.279500  0.995400  1.0  0.0567
  H  H1874  1  0.079400  0.265100  0.960000  1.0  0.0574
  H  H1875  1  0.065200  0.338900  0.973400  1.0  0.0736
  H  H1876  1  0.056800  0.347500  0.940400  1.0  0.0598
  H  H1877  1  0.010200  0.336100  0.948800  1.0  0.0413
  H  H1878  1  0.018300  0.329100  0.982200  1.0  0.0558
  H  H1879  1  0.116600  0.326900  0.861000  1.0  0.0688
  H  H1880  1  0.086300  0.339400  0.873500  1.0  0.0565
  H  H1881  1  0.163400  0.346200  0.879000  1.0  0.079
  H  H1882  1  0.106500  0.261400  0.895800  1.0  0.0867
  H  H1883  1  0.127800  0.280100  0.875000  1.0  0.0574
  H  H1884  1  0.155100  0.255500  0.955100  1.0  0.0592
  H  H1885  1  0.123400  0.245300  0.943800  1.0  0.0528
  H  H1886  1  0.176000  0.294400  0.893200  1.0  0.0486
  H  H1887  1  0.185900  0.283400  0.925100  1.0  0.0552
  H  H1888  1  0.936000  0.876400  0.411100  1.0  0.0464
  H  H1889  1  0.939600  0.847600  0.464400  1.0  0.0666
  H  H1890  1  0.033000  0.779500  0.495400  1.0  0.0567
  H  H1891  1  0.079400  0.765100  0.460000  1.0  0.057
  H  H1892  1  0.065200  0.838900  0.473400  1.0  0.0736
  H  H1893  1  0.056800  0.847500  0.440400  1.0  0.0598
  H  H1894  1  0.010200  0.836100  0.448800  1.0  0.0413
  H  H1895  1  0.018300  0.829100  0.482200  1.0  0.0558
  H  H1896  1  0.116600  0.826900  0.361000  1.0  0.0692
  H  H1897  1  0.086300  0.839400  0.373500  1.0  0.0562
  H  H1898  1  0.163400  0.846200  0.379000  1.0  0.08
  H  H1899  1  0.106500  0.761400  0.395800  1.0  0.0867
  H  H1900  1  0.127800  0.780100  0.375000  1.0  0.0574
  H  H1901  1  0.155100  0.755500  0.455100  1.0  0.0592
  H  H1902  1  0.123400  0.745300  0.443800  1.0  0.0528
  H  H1903  1  0.176000  0.794400  0.393200  1.0  0.0486
  H  H1904  1  0.185900  0.783400  0.425100  1.0  0.0552
  H  H1905  1  0.936000  0.873600  0.338900  1.0  0.0465
  H  H1906  1  0.939600  0.902400  0.285600  1.0  0.0672
  H  H1907  1  0.033000  0.970500  0.254600  1.0  0.0575
  H  H1908  1  0.079400  0.984900  0.290000  1.0  0.0571
  H  H1909  1  0.065200  0.911100  0.276600  1.0  0.0763
  H  H1910  1  0.056800  0.902500  0.309600  1.0  0.0606
  H  H1911  1  0.010200  0.913900  0.301200  1.0  0.0418
  H  H1912  1  0.018300  0.920900  0.267800  1.0  0.0565
  H  H1913  1  0.116600  0.923100  0.389000  1.0  0.0679
  H  H1914  1  0.086300  0.910600  0.376500  1.0  0.0549
  H  H1915  1  0.163400  0.903800  0.371000  1.0  0.0781
  H  H1916  1  0.106500  0.988600  0.354200  1.0  0.0856
  H  H1917  1  0.127800  0.969900  0.375000  1.0  0.0586
  H  H1918  1  0.155100  0.994500  0.294900  1.0  0.0597
  H  H1919  1  0.123400  0.004700  0.306200  1.0  0.0513
  H  H1920  1  0.176000  0.955600  0.356800  1.0  0.0502
  H  H1921  1  0.185900  0.966600  0.324900  1.0  0.0562
  H  H1922  1  0.936000  0.373600  0.838900  1.0  0.0465
  H  H1923  1  0.939600  0.402400  0.785600  1.0  0.0672
  H  H1924  1  0.033000  0.470500  0.754600  1.0  0.0589
  H  H1925  1  0.079400  0.484900  0.790000  1.0  0.0571
  H  H1926  1  0.065200  0.411100  0.776600  1.0  0.0763
  H  H1927  1  0.056800  0.402500  0.809600  1.0  0.0606
  H  H1928  1  0.010200  0.413900  0.801200  1.0  0.0418
  H  H1929  1  0.018300  0.420900  0.767800  1.0  0.0565
  H  H1930  1  0.116600  0.423100  0.889000  1.0  0.0676
  H  H1931  1  0.086300  0.410600  0.876500  1.0  0.0569
  H  H1932  1  0.163400  0.403800  0.871000  1.0  0.0778
  H  H1933  1  0.106500  0.488600  0.854200  1.0  0.0856
  H  H1934  1  0.127800  0.469900  0.875000  1.0  0.0586
  H  H1935  1  0.155100  0.494500  0.794900  1.0  0.0597
  H  H1936  1  0.123400  0.504700  0.806200  1.0  0.0513
  H  H1937  1  0.176000  0.455600  0.856800  1.0  0.0502
  H  H1938  1  0.185900  0.466600  0.824900  1.0  0.0562
  H  H1939  1  0.436000  0.873600  0.838900  1.0  0.0465
  H  H1940  1  0.439600  0.902400  0.785600  1.0  0.067
  H  H1941  1  0.533000  0.970500  0.754600  1.0  0.0575
  H  H1942  1  0.579400  0.984900  0.790000  1.0  0.0571
  H  H1943  1  0.565200  0.911100  0.776600  1.0  0.0763
  H  H1944  1  0.556800  0.902500  0.809600  1.0  0.0606
  H  H1945  1  0.510200  0.913900  0.801200  1.0  0.0418
  H  H1946  1  0.518300  0.920900  0.767800  1.0  0.0565
  H  H1947  1  0.616600  0.923100  0.889000  1.0  0.0679
  H  H1948  1  0.586300  0.910600  0.876500  1.0  0.0569
  H  H1949  1  0.663400  0.903800  0.871000  1.0  0.0788
  H  H1950  1  0.606500  0.988600  0.854200  1.0  0.0856
  H  H1951  1  0.627800  0.969900  0.875000  1.0  0.0586
  H  H1952  1  0.655100  0.994500  0.794900  1.0  0.0597
  H  H1953  1  0.623400  0.004700  0.806200  1.0  0.0513
  H  H1954  1  0.676000  0.955600  0.856800  1.0  0.0502
  H  H1955  1  0.685900  0.966600  0.824900  1.0  0.0562
  H  H1956  1  0.436000  0.373600  0.338900  1.0  0.0461
  H  H1957  1  0.439600  0.402400  0.285600  1.0  0.067
  H  H1958  1  0.533000  0.470500  0.254600  1.0  0.0589
  H  H1959  1  0.579400  0.484900  0.290000  1.0  0.0567
  H  H1960  1  0.565200  0.411100  0.276600  1.0  0.0763
  H  H1961  1  0.556800  0.402500  0.309600  1.0  0.0606
  H  H1962  1  0.510200  0.413900  0.301200  1.0  0.0418
  H  H1963  1  0.518300  0.420900  0.267800  1.0  0.0565
  H  H1964  1  0.616600  0.423100  0.389000  1.0  0.0676
  H  H1965  1  0.586300  0.410600  0.376500  1.0  0.0569
  H  H1966  1  0.663400  0.403800  0.371000  1.0  0.0785
  H  H1967  1  0.606500  0.488600  0.354200  1.0  0.0856
  H  H1968  1  0.627800  0.469900  0.375000  1.0  0.0586
  H  H1969  1  0.655100  0.494500  0.294900  1.0  0.0597
  H  H1970  1  0.623400  0.504700  0.306200  1.0  0.0513
  H  H1971  1  0.676000  0.455600  0.356800  1.0  0.0502
  H  H1972  1  0.685900  0.466600  0.324900  1.0  0.0562
  H  H1973  1  0.314000  0.876400  0.838900  1.0  0.0468
  H  H1974  1  0.310400  0.847600  0.785600  1.0  0.0668
  H  H1975  1  0.217000  0.779500  0.754600  1.0  0.0573
  H  H1976  1  0.170600  0.765100  0.790000  1.0  0.0565
  H  H1977  1  0.184800  0.838900  0.776600  1.0  0.0764
  H  H1978  1  0.193200  0.847500  0.809600  1.0  0.0592
  H  H1979  1  0.239800  0.836100  0.801200  1.0  0.0405
  H  H1980  1  0.231700  0.829100  0.767800  1.0  0.0579
  H  H1981  1  0.133400  0.826900  0.889000  1.0  0.0699
  H  H1982  1  0.163700  0.839400  0.876500  1.0  0.0582
  H  H1983  1  0.086600  0.846200  0.871000  1.0  0.0778
  H  H1984  1  0.143500  0.761400  0.854200  1.0  0.0855
  H  H1985  1  0.122200  0.780100  0.875000  1.0  0.0568
  H  H1986  1  0.094900  0.755500  0.794900  1.0  0.0589
  H  H1987  1  0.126600  0.745300  0.806200  1.0  0.0494
  H  H1988  1  0.074000  0.794400  0.856800  1.0  0.0483
  H  H1989  1  0.064100  0.783400  0.824900  1.0  0.054
  H  H1990  1  0.314000  0.376400  0.338900  1.0  0.0469
  H  H1991  1  0.310400  0.347600  0.285600  1.0  0.0668
  H  H1992  1  0.217000  0.279500  0.254600  1.0  0.0584
  H  H1993  1  0.170600  0.265100  0.290000  1.0  0.056
  H  H1994  1  0.184800  0.338900  0.276600  1.0  0.0764
  H  H1995  1  0.193200  0.347500  0.309600  1.0  0.0592
  H  H1996  1  0.239800  0.336100  0.301200  1.0  0.0405
  H  H1997  1  0.231700  0.329100  0.267800  1.0  0.0579
  H  H1998  1  0.133400  0.326900  0.389000  1.0  0.0698
  H  H1999  1  0.163700  0.339400  0.376500  1.0  0.0582
  H  H2000  1  0.086600  0.346200  0.371000  1.0  0.0778
  H  H2001  1  0.143500  0.261400  0.354200  1.0  0.0855
  H  H2002  1  0.122200  0.280100  0.375000  1.0  0.0568
  H  H2003  1  0.094900  0.255500  0.294900  1.0  0.0589
  H  H2004  1  0.126600  0.245300  0.306200  1.0  0.0494
  H  H2005  1  0.074000  0.294400  0.356800  1.0  0.0483
  H  H2006  1  0.064100  0.283400  0.324900  1.0  0.054
  H  H2007  1  0.814000  0.876400  0.338900  1.0  0.0468
  H  H2008  1  0.810400  0.847600  0.285600  1.0  0.0668
  H  H2009  1  0.717000  0.779500  0.254600  1.0  0.0573
  H  H2010  1  0.670600  0.765100  0.290000  1.0  0.056
  H  H2011  1  0.684800  0.838900  0.276600  1.0  0.0764
  H  H2012  1  0.693200  0.847500  0.309600  1.0  0.0592
  H  H2013  1  0.739800  0.836100  0.301200  1.0  0.0405
  H  H2014  1  0.731700  0.829100  0.267800  1.0  0.0579
  H  H2015  1  0.633400  0.826900  0.389000  1.0  0.0699
  H  H2016  1  0.663700  0.839400  0.376500  1.0  0.0579
  H  H2017  1  0.586600  0.846200  0.371000  1.0  0.0778
  H  H2018  1  0.643500  0.761400  0.354200  1.0  0.0855
  H  H2019  1  0.622200  0.780100  0.375000  1.0  0.0568
  H  H2020  1  0.594900  0.755500  0.294900  1.0  0.0589
  H  H2021  1  0.626600  0.745300  0.306200  1.0  0.0494
  H  H2022  1  0.574000  0.794400  0.356800  1.0  0.0483
  H  H2023  1  0.564100  0.783400  0.324900  1.0  0.054
  H  H2024  1  0.814000  0.376400  0.838900  1.0  0.0479
  H  H2025  1  0.810400  0.347600  0.785600  1.0  0.0668
  H  H2026  1  0.717000  0.279500  0.754600  1.0  0.0584
  H  H2027  1  0.670600  0.265100  0.790000  1.0  0.0565
  H  H2028  1  0.684800  0.338900  0.776600  1.0  0.0764
  H  H2029  1  0.693200  0.347500  0.809600  1.0  0.0592
  H  H2030  1  0.739800  0.336100  0.801200  1.0  0.0405
  H  H2031  1  0.731700  0.329100  0.767800  1.0  0.0579
  H  H2032  1  0.633400  0.326900  0.889000  1.0  0.0698
  H  H2033  1  0.663700  0.339400  0.876500  1.0  0.0582
  H  H2034  1  0.586600  0.346200  0.871000  1.0  0.0766
  H  H2035  1  0.643500  0.261400  0.854200  1.0  0.0855
  H  H2036  1  0.622200  0.280100  0.875000  1.0  0.0568
  H  H2037  1  0.594900  0.255500  0.794900  1.0  0.0589
  H  H2038  1  0.626600  0.245300  0.806200  1.0  0.0494
  H  H2039  1  0.574000  0.294400  0.856800  1.0  0.0483
  H  H2040  1  0.564100  0.283400  0.824900  1.0  0.054
  H  H2041  1  0.911100  0.814000  0.373600  1.0  0.0446
  H  H2042  1  0.964400  0.810400  0.402400  1.0  0.0652
  H  H2043  1  0.995400  0.717000  0.470500  1.0  0.0502
  H  H2044  1  0.960000  0.670600  0.484900  1.0  0.0565
  H  H2045  1  0.973400  0.684800  0.411100  1.0  0.0748
  H  H2046  1  0.940400  0.693200  0.402500  1.0  0.0582
  H  H2047  1  0.948800  0.739800  0.413900  1.0  0.0395
  H  H2048  1  0.982200  0.731700  0.420900  1.0  0.0508
  H  H2049  1  0.861000  0.633400  0.423100  1.0  0.069
  H  H2050  1  0.873500  0.663700  0.410600  1.0  0.0617
  H  H2051  1  0.879000  0.586600  0.403800  1.0  0.0774
  H  H2052  1  0.895800  0.643500  0.488600  1.0  0.0842
  H  H2053  1  0.875000  0.622200  0.469900  1.0  0.0567
  H  H2054  1  0.955100  0.594900  0.494500  1.0  0.0541
  H  H2055  1  0.943800  0.626600  0.504700  1.0  0.0544
  H  H2056  1  0.893200  0.574000  0.455600  1.0  0.0496
  H  H2057  1  0.925100  0.564100  0.466600  1.0  0.057
  H  H2058  1  0.911100  0.314000  0.873600  1.0  0.0446
  H  H2059  1  0.964400  0.310400  0.902400  1.0  0.0648
  H  H2060  1  0.995400  0.217000  0.970500  1.0  0.0502
  H  H2061  1  0.960000  0.170600  0.984900  1.0  0.0565
  H  H2062  1  0.973400  0.184800  0.911100  1.0  0.0748
  H  H2063  1  0.940400  0.193200  0.902500  1.0  0.0582
  H  H2064  1  0.948800  0.239800  0.913900  1.0  0.0395
  H  H2065  1  0.982200  0.231700  0.920900  1.0  0.0508
  H  H2066  1  0.861000  0.133400  0.923100  1.0  0.0695
  H  H2067  1  0.873500  0.163700  0.910600  1.0  0.0617
  H  H2068  1  0.879000  0.086600  0.903800  1.0  0.079
  H  H2069  1  0.895800  0.143500  0.988600  1.0  0.0842
  H  H2070  1  0.875000  0.122200  0.969900  1.0  0.0567
  H  H2071  1  0.955100  0.094900  0.994500  1.0  0.0541
  H  H2072  1  0.943800  0.126600  0.004700  1.0  0.0544
  H  H2073  1  0.893200  0.074000  0.955600  1.0  0.0496
  H  H2074  1  0.925100  0.064100  0.966600  1.0  0.057
  H  H2075  1  0.411100  0.814000  0.873600  1.0  0.0441
  H  H2076  1  0.464400  0.810400  0.902400  1.0  0.0652
  H  H2077  1  0.495400  0.717000  0.970500  1.0  0.0502
  H  H2078  1  0.460000  0.670600  0.984900  1.0  0.0565
  H  H2079  1  0.473400  0.684800  0.911100  1.0  0.0748
  H  H2080  1  0.440400  0.693200  0.902500  1.0  0.0582
  H  H2081  1  0.448800  0.739800  0.913900  1.0  0.0395
  H  H2082  1  0.482200  0.731700  0.920900  1.0  0.0508
  H  H2083  1  0.361000  0.633400  0.923100  1.0  0.0695
  H  H2084  1  0.373500  0.663700  0.910600  1.0  0.0604
  H  H2085  1  0.379000  0.586600  0.903800  1.0  0.079
  H  H2086  1  0.395800  0.643500  0.988600  1.0  0.0842
  H  H2087  1  0.375000  0.622200  0.969900  1.0  0.0567
  H  H2088  1  0.455100  0.594900  0.994500  1.0  0.0541
  H  H2089  1  0.443800  0.626600  0.004700  1.0  0.0544
  H  H2090  1  0.393200  0.574000  0.955600  1.0  0.0496
  H  H2091  1  0.425100  0.564100  0.966600  1.0  0.057
  H  H2092  1  0.411100  0.314000  0.373600  1.0  0.0441
  H  H2093  1  0.464400  0.310400  0.402400  1.0  0.0648
  H  H2094  1  0.495400  0.217000  0.470500  1.0  0.0515
  H  H2095  1  0.460000  0.170600  0.484900  1.0  0.056
  H  H2096  1  0.473400  0.184800  0.411100  1.0  0.0748
  H  H2097  1  0.440400  0.193200  0.402500  1.0  0.0582
  H  H2098  1  0.448800  0.239800  0.413900  1.0  0.0395
  H  H2099  1  0.482200  0.231700  0.420900  1.0  0.0508
  H  H2100  1  0.361000  0.133400  0.423100  1.0  0.069
  H  H2101  1  0.373500  0.163700  0.410600  1.0  0.0617
  H  H2102  1  0.379000  0.086600  0.403800  1.0  0.0778
  H  H2103  1  0.395800  0.143500  0.488600  1.0  0.0842
  H  H2104  1  0.375000  0.122200  0.469900  1.0  0.0567
  H  H2105  1  0.455100  0.094900  0.494500  1.0  0.0541
  H  H2106  1  0.443800  0.126600  0.504700  1.0  0.0544
  H  H2107  1  0.393200  0.074000  0.455600  1.0  0.0496
  H  H2108  1  0.425100  0.064100  0.466600  1.0  0.057
  H  H2109  1  0.411100  0.436000  0.376400  1.0  0.0458
  H  H2110  1  0.464400  0.439600  0.347600  1.0  0.0632
  H  H2111  1  0.495400  0.533000  0.279500  1.0  0.052
  H  H2112  1  0.460000  0.579400  0.265100  1.0  0.0552
  H  H2113  1  0.473400  0.565200  0.338900  1.0  0.0722
  H  H2114  1  0.440400  0.556800  0.347500  1.0  0.0584
  H  H2115  1  0.448800  0.510200  0.336100  1.0  0.0404
  H  H2116  1  0.482200  0.518300  0.329100  1.0  0.0493
  H  H2117  1  0.361000  0.616600  0.326900  1.0  0.0694
  H  H2118  1  0.373500  0.586300  0.339400  1.0  0.0617
  H  H2119  1  0.379000  0.663400  0.346200  1.0  0.0777
  H  H2120  1  0.395800  0.606500  0.261400  1.0  0.0829
  H  H2121  1  0.375000  0.627800  0.280100  1.0  0.0581
  H  H2122  1  0.455100  0.655100  0.255500  1.0  0.0556
  H  H2123  1  0.443800  0.623400  0.245300  1.0  0.0557
  H  H2124  1  0.393200  0.676000  0.294400  1.0  0.0518
  H  H2125  1  0.425100  0.685900  0.283400  1.0  0.0573
  H  H2126  1  0.411100  0.936000  0.876400  1.0  0.0455
  H  H2127  1  0.464400  0.939600  0.847600  1.0  0.0639
  H  H2128  1  0.495400  0.033000  0.779500  1.0  0.0508
  H  H2129  1  0.460000  0.079400  0.765100  1.0  0.0552
  H  H2130  1  0.473400  0.065200  0.838900  1.0  0.0722
  H  H2131  1  0.440400  0.056800  0.847500  1.0  0.0584
  H  H2132  1  0.448800  0.010200  0.836100  1.0  0.0404
  H  H2133  1  0.482200  0.018300  0.829100  1.0  0.0493
  H  H2134  1  0.361000  0.116600  0.826900  1.0  0.0698
  H  H2135  1  0.373500  0.086300  0.839400  1.0  0.0596
  H  H2136  1  0.379000  0.163400  0.846200  1.0  0.0787
  H  H2137  1  0.395800  0.106500  0.761400  1.0  0.0829
  H  H2138  1  0.375000  0.127800  0.780100  1.0  0.0581
  H  H2139  1  0.455100  0.155100  0.755500  1.0  0.0556
  H  H2140  1  0.443800  0.123400  0.745300  1.0  0.0557
  H  H2141  1  0.393200  0.176000  0.794400  1.0  0.0518
  H  H2142  1  0.425100  0.185900  0.783400  1.0  0.0573
  H  H2143  1  0.911100  0.436000  0.876400  1.0  0.0423
  H  H2144  1  0.964400  0.439600  0.847600  1.0  0.0644
  H  H2145  1  0.995400  0.533000  0.779500  1.0  0.0508
  H  H2146  1  0.960000  0.579400  0.765100  1.0  0.0556
  H  H2147  1  0.973400  0.565200  0.838900  1.0  0.0722
  H  H2148  1  0.940400  0.556800  0.847500  1.0  0.0584
  H  H2149  1  0.948800  0.510200  0.836100  1.0  0.0404
  H  H2150  1  0.982200  0.518300  0.829100  1.0  0.0493
  H  H2151  1  0.861000  0.616600  0.826900  1.0  0.0698
  H  H2152  1  0.873500  0.586300  0.839400  1.0  0.0617
  H  H2153  1  0.879000  0.663400  0.846200  1.0  0.0777
  H  H2154  1  0.895800  0.606500  0.761400  1.0  0.0829
  H  H2155  1  0.875000  0.627800  0.780100  1.0  0.0581
  H  H2156  1  0.955100  0.655100  0.755500  1.0  0.0556
  H  H2157  1  0.943800  0.623400  0.745300  1.0  0.0557
  H  H2158  1  0.893200  0.676000  0.794400  1.0  0.0518
  H  H2159  1  0.925100  0.685900  0.783400  1.0  0.0573
  H  H2160  1  0.911100  0.936000  0.376400  1.0  0.0445
  H  H2161  1  0.964400  0.939600  0.347600  1.0  0.0615
  H  H2162  1  0.995400  0.033000  0.279500  1.0  0.0508
  H  H2163  1  0.960000  0.079400  0.265100  1.0  0.0556
  H  H2164  1  0.973400  0.065200  0.338900  1.0  0.0722
  H  H2165  1  0.940400  0.056800  0.347500  1.0  0.0584
  H  H2166  1  0.948800  0.010200  0.336100  1.0  0.0404
  H  H2167  1  0.982200  0.018300  0.329100  1.0  0.0493
  H  H2168  1  0.861000  0.116600  0.326900  1.0  0.0694
  H  H2169  1  0.873500  0.086300  0.339400  1.0  0.0617
  H  H2170  1  0.879000  0.163400  0.346200  1.0  0.0783
  H  H2171  1  0.895800  0.106500  0.261400  1.0  0.0829
  H  H2172  1  0.875000  0.127800  0.280100  1.0  0.0581
  H  H2173  1  0.955100  0.155100  0.255500  1.0  0.0556
  H  H2174  1  0.943800  0.123400  0.245300  1.0  0.0557
  H  H2175  1  0.893200  0.176000  0.294400  1.0  0.0518
  H  H2176  1  0.925100  0.185900  0.283400  1.0  0.0573
  H  H2177  1  0.338900  0.936000  0.873600  1.0  0.044
  H  H2178  1  0.285600  0.939600  0.902400  1.0  0.0649
  H  H2179  1  0.254600  0.033000  0.970500  1.0  0.0512
  H  H2180  1  0.290000  0.079400  0.984900  1.0  0.0554
  H  H2181  1  0.276600  0.065200  0.911100  1.0  0.0744
  H  H2182  1  0.309600  0.056800  0.902500  1.0  0.0569
  H  H2183  1  0.301200  0.010200  0.913900  1.0  0.039
  H  H2184  1  0.267800  0.018300  0.920900  1.0  0.0503
  H  H2185  1  0.389000  0.116600  0.923100  1.0  0.0698
  H  H2186  1  0.376500  0.086300  0.910600  1.0  0.0628
  H  H2187  1  0.371000  0.163400  0.903800  1.0  0.079
  H  H2188  1  0.354200  0.106500  0.988600  1.0  0.0841
  H  H2189  1  0.375000  0.127800  0.969900  1.0  0.0568
  H  H2190  1  0.294900  0.155100  0.994500  1.0  0.053
  H  H2191  1  0.306200  0.123400  0.004700  1.0  0.0561
  H  H2192  1  0.356800  0.176000  0.955600  1.0  0.0514
  H  H2193  1  0.324900  0.185900  0.966600  1.0  0.0563
  H  H2194  1  0.338900  0.436000  0.373600  1.0  0.044
  H  H2195  1  0.285600  0.439600  0.402400  1.0  0.0649
  H  H2196  1  0.254600  0.533000  0.470500  1.0  0.052
  H  H2197  1  0.290000  0.579400  0.484900  1.0  0.055
  H  H2198  1  0.276600  0.565200  0.411100  1.0  0.0744
  H  H2199  1  0.309600  0.556800  0.402500  1.0  0.0569
  H  H2200  1  0.301200  0.510200  0.413900  1.0  0.039
  H  H2201  1  0.267800  0.518300  0.420900  1.0  0.0503
  H  H2202  1  0.389000  0.616600  0.423100  1.0  0.0696
  H  H2203  1  0.376500  0.586300  0.410600  1.0  0.0631
  H  H2204  1  0.371000  0.663400  0.403800  1.0  0.0802
  H  H2205  1  0.354200  0.606500  0.488600  1.0  0.0841
  H  H2206  1  0.375000  0.627800  0.469900  1.0  0.0568
  H  H2207  1  0.294900  0.655100  0.494500  1.0  0.053
  H  H2208  1  0.306200  0.623400  0.504700  1.0  0.0561
  H  H2209  1  0.356800  0.676000  0.455600  1.0  0.0514
  H  H2210  1  0.324900  0.685900  0.466600  1.0  0.0563
  H  H2211  1  0.838900  0.936000  0.373600  1.0  0.0439
  H  H2212  1  0.785600  0.939600  0.402400  1.0  0.0643
  H  H2213  1  0.754600  0.033000  0.470500  1.0  0.052
  H  H2214  1  0.790000  0.079400  0.484900  1.0  0.0554
  H  H2215  1  0.776600  0.065200  0.411100  1.0  0.0744
  H  H2216  1  0.809600  0.056800  0.402500  1.0  0.0569
  H  H2217  1  0.801200  0.010200  0.413900  1.0  0.039
  H  H2218  1  0.767800  0.018300  0.420900  1.0  0.0503
  H  H2219  1  0.889000  0.116600  0.423100  1.0  0.0696
  H  H2220  1  0.876500  0.086300  0.410600  1.0  0.0631
  H  H2221  1  0.871000  0.163400  0.403800  1.0  0.0783
  H  H2222  1  0.854200  0.106500  0.488600  1.0  0.0841
  H  H2223  1  0.875000  0.127800  0.469900  1.0  0.0568
  H  H2224  1  0.794900  0.155100  0.494500  1.0  0.053
  H  H2225  1  0.806200  0.123400  0.504700  1.0  0.0561
  H  H2226  1  0.856800  0.176000  0.455600  1.0  0.0514
  H  H2227  1  0.824900  0.185900  0.466600  1.0  0.0563
  H  H2228  1  0.838900  0.436000  0.873600  1.0  0.0439
  H  H2229  1  0.785600  0.439600  0.902400  1.0  0.0643
  H  H2230  1  0.754600  0.533000  0.970500  1.0  0.0512
  H  H2231  1  0.790000  0.579400  0.984900  1.0  0.0554
  H  H2232  1  0.776600  0.565200  0.911100  1.0  0.0744
  H  H2233  1  0.809600  0.556800  0.902500  1.0  0.0569
  H  H2234  1  0.801200  0.510200  0.913900  1.0  0.039
  H  H2235  1  0.767800  0.518300  0.920900  1.0  0.0503
  H  H2236  1  0.889000  0.616600  0.923100  1.0  0.0698
  H  H2237  1  0.876500  0.586300  0.910600  1.0  0.0631
  H  H2238  1  0.871000  0.663400  0.903800  1.0  0.0802
  H  H2239  1  0.854200  0.606500  0.988600  1.0  0.0841
  H  H2240  1  0.875000  0.627800  0.969900  1.0  0.0568
  H  H2241  1  0.794900  0.655100  0.994500  1.0  0.053
  H  H2242  1  0.806200  0.623400  0.004700  1.0  0.0561
  H  H2243  1  0.856800  0.676000  0.955600  1.0  0.0514
  H  H2244  1  0.824900  0.685900  0.966600  1.0  0.0563
  H  H2245  1  0.838900  0.314000  0.876400  1.0  0.0456
  H  H2246  1  0.785600  0.310400  0.847600  1.0  0.0654
  H  H2247  1  0.754600  0.217000  0.779500  1.0  0.0504
  H  H2248  1  0.790000  0.170600  0.765100  1.0  0.0545
  H  H2249  1  0.776600  0.184800  0.838900  1.0  0.074
  H  H2250  1  0.809600  0.193200  0.847500  1.0  0.0576
  H  H2251  1  0.801200  0.239800  0.836100  1.0  0.0397
  H  H2252  1  0.767800  0.231700  0.829100  1.0  0.0503
  H  H2253  1  0.889000  0.133400  0.826900  1.0  0.0709
  H  H2254  1  0.876500  0.163700  0.839400  1.0  0.061
  H  H2255  1  0.871000  0.086600  0.846200  1.0  0.0788
  H  H2256  1  0.854200  0.143500  0.761400  1.0  0.0845
  H  H2257  1  0.875000  0.122200  0.780100  1.0  0.0578
  H  H2258  1  0.794900  0.094900  0.755500  1.0  0.0516
  H  H2259  1  0.806200  0.126600  0.745300  1.0  0.0546
  H  H2260  1  0.856800  0.074000  0.794400  1.0  0.0508
  H  H2261  1  0.824900  0.064100  0.783400  1.0  0.0553
  H  H2262  1  0.838900  0.814000  0.376400  1.0  0.0466
  H  H2263  1  0.785600  0.810400  0.347600  1.0  0.0647
  H  H2264  1  0.754600  0.717000  0.279500  1.0  0.0512
  H  H2265  1  0.790000  0.670600  0.265100  1.0  0.0545
  H  H2266  1  0.776600  0.684800  0.338900  1.0  0.074
  H  H2267  1  0.809600  0.693200  0.347500  1.0  0.0576
  H  H2268  1  0.801200  0.739800  0.336100  1.0  0.0397
  H  H2269  1  0.767800  0.731700  0.329100  1.0  0.0503
  H  H2270  1  0.889000  0.633400  0.326900  1.0  0.0707
  H  H2271  1  0.876500  0.663700  0.339400  1.0  0.061
  H  H2272  1  0.871000  0.586600  0.346200  1.0  0.0796
  H  H2273  1  0.854200  0.643500  0.261400  1.0  0.0845
  H  H2274  1  0.875000  0.622200  0.280100  1.0  0.0578
  H  H2275  1  0.794900  0.594900  0.255500  1.0  0.0516
  H  H2276  1  0.806200  0.626600  0.245300  1.0  0.0546
  H  H2277  1  0.856800  0.574000  0.294400  1.0  0.0508
  H  H2278  1  0.824900  0.564100  0.283400  1.0  0.0553
  H  H2279  1  0.338900  0.314000  0.376400  1.0  0.0454
  H  H2280  1  0.285600  0.310400  0.347600  1.0  0.0647
  H  H2281  1  0.254600  0.217000  0.279500  1.0  0.0512
  H  H2282  1  0.290000  0.170600  0.265100  1.0  0.0541
  H  H2283  1  0.276600  0.184800  0.338900  1.0  0.074
  H  H2284  1  0.309600  0.193200  0.347500  1.0  0.0576
  H  H2285  1  0.301200  0.239800  0.336100  1.0  0.0397
  H  H2286  1  0.267800  0.231700  0.329100  1.0  0.0503
  H  H2287  1  0.389000  0.133400  0.326900  1.0  0.0707
  H  H2288  1  0.376500  0.163700  0.339400  1.0  0.0587
  H  H2289  1  0.371000  0.086600  0.346200  1.0  0.0785
  H  H2290  1  0.354200  0.143500  0.261400  1.0  0.0845
  H  H2291  1  0.375000  0.122200  0.280100  1.0  0.0578
  H  H2292  1  0.294900  0.094900  0.255500  1.0  0.0516
  H  H2293  1  0.306200  0.126600  0.245300  1.0  0.0546
  H  H2294  1  0.356800  0.074000  0.294400  1.0  0.0508
  H  H2295  1  0.324900  0.064100  0.283400  1.0  0.0553
  H  H2296  1  0.338900  0.814000  0.876400  1.0  0.0454
  H  H2297  1  0.285600  0.810400  0.847600  1.0  0.0647
  H  H2298  1  0.254600  0.717000  0.779500  1.0  0.0504
  H  H2299  1  0.290000  0.670600  0.765100  1.0  0.0541
  H  H2300  1  0.276600  0.684800  0.838900  1.0  0.074
  H  H2301  1  0.309600  0.693200  0.847500  1.0  0.0576
  H  H2302  1  0.301200  0.739800  0.836100  1.0  0.0397
  H  H2303  1  0.267800  0.731700  0.829100  1.0  0.0503
  H  H2304  1  0.389000  0.633400  0.826900  1.0  0.0709
  H  H2305  1  0.376500  0.663700  0.839400  1.0  0.0587
  H  H2306  1  0.371000  0.586600  0.846200  1.0  0.0788
  H  H2307  1  0.354200  0.643500  0.761400  1.0  0.0845
  H  H2308  1  0.375000  0.622200  0.780100  1.0  0.0578
  H  H2309  1  0.294900  0.594900  0.755500  1.0  0.0516
  H  H2310  1  0.306200  0.626600  0.745300  1.0  0.0546
  H  H2311  1  0.356800  0.574000  0.794400  1.0  0.0508
  H  H2312  1  0.324900  0.564100  0.783400  1.0  0.0553
  H  H2313  1  0.373600  0.911100  0.814000  1.0  0.0453
  H  H2314  1  0.402400  0.964400  0.810400  1.0  0.0664
  H  H2315  1  0.470500  0.995400  0.717000  1.0  0.0571
  H  H2316  1  0.484900  0.960000  0.670600  1.0  0.0528
  H  H2317  1  0.411100  0.973400  0.684800  1.0  0.0747
  H  H2318  1  0.402500  0.940400  0.693200  1.0  0.0581
  H  H2319  1  0.413900  0.948800  0.739800  1.0  0.0417
  H  H2320  1  0.420900  0.982200  0.731700  1.0  0.0546
  H  H2321  1  0.423100  0.861000  0.633400  1.0  0.0673
  H  H2322  1  0.410600  0.873500  0.663700  1.0  0.0639
  H  H2323  1  0.403800  0.879000  0.586600  1.0  0.077
  H  H2324  1  0.488600  0.895800  0.643500  1.0  0.082
  H  H2325  1  0.469900  0.875000  0.622200  1.0  0.0607
  H  H2326  1  0.494500  0.955100  0.594900  1.0  0.0639
  H  H2327  1  0.504700  0.943800  0.626600  1.0  0.0575
  H  H2328  1  0.455600  0.893200  0.574000  1.0  0.0465
  H  H2329  1  0.466600  0.925100  0.564100  1.0  0.0567
  H  H2330  1  0.373600  0.411100  0.314000  1.0  0.0454
  H  H2331  1  0.402400  0.464400  0.310400  1.0  0.0664
  H  H2332  1  0.470500  0.495400  0.217000  1.0  0.0588
  H  H2333  1  0.484900  0.460000  0.170600  1.0  0.0528
  H  H2334  1  0.411100  0.473400  0.184800  1.0  0.0747
  H  H2335  1  0.402500  0.440400  0.193200  1.0  0.0581
  H  H2336  1  0.413900  0.448800  0.239800  1.0  0.0417
  H  H2337  1  0.420900  0.482200  0.231700  1.0  0.0546
  H  H2338  1  0.423100  0.361000  0.133400  1.0  0.0673
  H  H2339  1  0.410600  0.373500  0.163700  1.0  0.0639
  H  H2340  1  0.403800  0.379000  0.086600  1.0  0.077
  H  H2341  1  0.488600  0.395800  0.143500  1.0  0.082
  H  H2342  1  0.469900  0.375000  0.122200  1.0  0.0607
  H  H2343  1  0.494500  0.455100  0.094900  1.0  0.0639
  H  H2344  1  0.504700  0.443800  0.126600  1.0  0.0575
  H  H2345  1  0.455600  0.393200  0.074000  1.0  0.0465
  H  H2346  1  0.466600  0.425100  0.064100  1.0  0.0567
  H  H2347  1  0.873600  0.911100  0.314000  1.0  0.0454
  H  H2348  1  0.902400  0.964400  0.310400  1.0  0.0659
  H  H2349  1  0.970500  0.995400  0.217000  1.0  0.0571
  H  H2350  1  0.984900  0.960000  0.170600  1.0  0.0528
  H  H2351  1  0.911100  0.973400  0.184800  1.0  0.0747
  H  H2352  1  0.902500  0.940400  0.193200  1.0  0.0581
  H  H2353  1  0.913900  0.948800  0.239800  1.0  0.0417
  H  H2354  1  0.920900  0.982200  0.231700  1.0  0.0546
  H  H2355  1  0.923100  0.861000  0.133400  1.0  0.0673
  H  H2356  1  0.910600  0.873500  0.163700  1.0  0.0639
  H  H2357  1  0.903800  0.879000  0.086600  1.0  0.0774
  H  H2358  1  0.988600  0.895800  0.143500  1.0  0.082
  H  H2359  1  0.969900  0.875000  0.122200  1.0  0.0607
  H  H2360  1  0.994500  0.955100  0.094900  1.0  0.0639
  H  H2361  1  0.004700  0.943800  0.126600  1.0  0.0575
  H  H2362  1  0.955600  0.893200  0.074000  1.0  0.0465
  H  H2363  1  0.966600  0.925100  0.064100  1.0  0.0567
  H  H2364  1  0.873600  0.411100  0.814000  1.0  0.0458
  H  H2365  1  0.902400  0.464400  0.810400  1.0  0.0659
  H  H2366  1  0.970500  0.495400  0.717000  1.0  0.0571
  H  H2367  1  0.984900  0.460000  0.670600  1.0  0.0528
  H  H2368  1  0.911100  0.473400  0.684800  1.0  0.0747
  H  H2369  1  0.902500  0.440400  0.693200  1.0  0.0581
  H  H2370  1  0.913900  0.448800  0.739800  1.0  0.0417
  H  H2371  1  0.920900  0.482200  0.731700  1.0  0.0546
  H  H2372  1  0.923100  0.361000  0.633400  1.0  0.0675
  H  H2373  1  0.910600  0.373500  0.663700  1.0  0.0616
  H  H2374  1  0.903800  0.379000  0.586600  1.0  0.0774
  H  H2375  1  0.988600  0.395800  0.643500  1.0  0.082
  H  H2376  1  0.969900  0.375000  0.622200  1.0  0.0607
  H  H2377  1  0.994500  0.455100  0.594900  1.0  0.0639
  H  H2378  1  0.004700  0.443800  0.626600  1.0  0.0575
  H  H2379  1  0.955600  0.393200  0.574000  1.0  0.0465
  H  H2380  1  0.966600  0.425100  0.564100  1.0  0.0567
  H  H2381  1  0.376400  0.411100  0.436000  1.0  0.0441
  H  H2382  1  0.347600  0.464400  0.439600  1.0  0.0645
  H  H2383  1  0.279500  0.495400  0.533000  1.0  0.0607
  H  H2384  1  0.265100  0.460000  0.579400  1.0  0.0513
  H  H2385  1  0.338900  0.473400  0.565200  1.0  0.074
  H  H2386  1  0.347500  0.440400  0.556800  1.0  0.0583
  H  H2387  1  0.336100  0.448800  0.510200  1.0  0.0404
  H  H2388  1  0.329100  0.482200  0.518300  1.0  0.0542
  H  H2389  1  0.326900  0.361000  0.616600  1.0  0.0652
  H  H2390  1  0.339400  0.373500  0.586300  1.0  0.0623
  H  H2391  1  0.346200  0.379000  0.663400  1.0  0.0773
  H  H2392  1  0.261400  0.395800  0.606500  1.0  0.0838
  H  H2393  1  0.280100  0.375000  0.627800  1.0  0.0598
  H  H2394  1  0.255500  0.455100  0.655100  1.0  0.0632
  H  H2395  1  0.245300  0.443800  0.623400  1.0  0.0564
  H  H2396  1  0.294400  0.393200  0.676000  1.0  0.0487
  H  H2397  1  0.283400  0.425100  0.685900  1.0  0.0561
  H  H2398  1  0.376400  0.911100  0.936000  1.0  0.0441
  H  H2399  1  0.347600  0.964400  0.939600  1.0  0.0621
  H  H2400  1  0.279500  0.995400  0.033000  1.0  0.059
  H  H2401  1  0.265100  0.960000  0.079400  1.0  0.0516
  H  H2402  1  0.338900  0.973400  0.065200  1.0  0.074
  H  H2403  1  0.347500  0.940400  0.056800  1.0  0.0583
  H  H2404  1  0.336100  0.948800  0.010200  1.0  0.0404
  H  H2405  1  0.329100  0.982200  0.018300  1.0  0.0542
  H  H2406  1  0.326900  0.861000  0.116600  1.0  0.0652
  H  H2407  1  0.339400  0.873500  0.086300  1.0  0.0623
  H  H2408  1  0.346200  0.879000  0.163400  1.0  0.0771
  H  H2409  1  0.261400  0.895800  0.106500  1.0  0.0838
  H  H2410  1  0.280100  0.875000  0.127800  1.0  0.0598
  H  H2411  1  0.255500  0.955100  0.155100  1.0  0.0632
  H  H2412  1  0.245300  0.943800  0.123400  1.0  0.0564
  H  H2413  1  0.294400  0.893200  0.176000  1.0  0.0487
  H  H2414  1  0.283400  0.925100  0.185900  1.0  0.0561
  H  H2415  1  0.876400  0.411100  0.936000  1.0  0.0439
  H  H2416  1  0.847600  0.464400  0.939600  1.0  0.065
  H  H2417  1  0.779500  0.495400  0.033000  1.0  0.059
  H  H2418  1  0.765100  0.460000  0.079400  1.0  0.0513
  H  H2419  1  0.838900  0.473400  0.065200  1.0  0.074
  H  H2420  1  0.847500  0.440400  0.056800  1.0  0.0583
  H  H2421  1  0.836100  0.448800  0.010200  1.0  0.0404
  H  H2422  1  0.829100  0.482200  0.018300  1.0  0.0542
  H  H2423  1  0.826900  0.361000  0.116600  1.0  0.0657
  H  H2424  1  0.839400  0.373500  0.086300  1.0  0.0619
  H  H2425  1  0.846200  0.379000  0.163400  1.0  0.0782
  H  H2426  1  0.761400  0.395800  0.106500  1.0  0.0838
  H  H2427  1  0.780100  0.375000  0.127800  1.0  0.0598
  H  H2428  1  0.755500  0.455100  0.155100  1.0  0.0632
  H  H2429  1  0.745300  0.443800  0.123400  1.0  0.0564
  H  H2430  1  0.794400  0.393200  0.176000  1.0  0.0487
  H  H2431  1  0.783400  0.425100  0.185900  1.0  0.0561
  H  H2432  1  0.876400  0.911100  0.436000  1.0  0.0433
  H  H2433  1  0.847600  0.964400  0.439600  1.0  0.0665
  H  H2434  1  0.779500  0.995400  0.533000  1.0  0.059
  H  H2435  1  0.765100  0.960000  0.579400  1.0  0.0516
  H  H2436  1  0.838900  0.973400  0.565200  1.0  0.074
  H  H2437  1  0.847500  0.940400  0.556800  1.0  0.0583
  H  H2438  1  0.836100  0.948800  0.510200  1.0  0.0404
  H  H2439  1  0.829100  0.982200  0.518300  1.0  0.0542
  H  H2440  1  0.826900  0.861000  0.616600  1.0  0.0657
  H  H2441  1  0.839400  0.873500  0.586300  1.0  0.0623
  H  H2442  1  0.846200  0.879000  0.663400  1.0  0.0782
  H  H2443  1  0.761400  0.895800  0.606500  1.0  0.0838
  H  H2444  1  0.780100  0.875000  0.627800  1.0  0.0598
  H  H2445  1  0.755500  0.955100  0.655100  1.0  0.0632
  H  H2446  1  0.745300  0.943800  0.623400  1.0  0.0564
  H  H2447  1  0.794400  0.893200  0.676000  1.0  0.0487
  H  H2448  1  0.783400  0.925100  0.685900  1.0  0.0561
  H  H2449  1  0.873600  0.338900  0.936000  1.0  0.045
  H  H2450  1  0.902400  0.285600  0.939600  1.0  0.0665
  H  H2451  1  0.970500  0.254600  0.033000  1.0  0.0564
  H  H2452  1  0.984900  0.290000  0.079400  1.0  0.0532
  H  H2453  1  0.911100  0.276600  0.065200  1.0  0.0748
  H  H2454  1  0.902500  0.309600  0.056800  1.0  0.0566
  H  H2455  1  0.913900  0.301200  0.010200  1.0  0.0407
  H  H2456  1  0.920900  0.267800  0.018300  1.0  0.0547
  H  H2457  1  0.923100  0.389000  0.116600  1.0  0.067
  H  H2458  1  0.910600  0.376500  0.086300  1.0  0.0592
  H  H2459  1  0.903800  0.371000  0.163400  1.0  0.0785
  H  H2460  1  0.988600  0.354200  0.106500  1.0  0.0835
  H  H2461  1  0.969900  0.375000  0.127800  1.0  0.0606
  H  H2462  1  0.994500  0.294900  0.155100  1.0  0.0605
  H  H2463  1  0.004700  0.306200  0.123400  1.0  0.0571
  H  H2464  1  0.955600  0.356800  0.176000  1.0  0.0471
  H  H2465  1  0.966600  0.324900  0.185900  1.0  0.056
  H  H2466  1  0.873600  0.838900  0.436000  1.0  0.0451
  H  H2467  1  0.902400  0.785600  0.439600  1.0  0.0665
  H  H2468  1  0.970500  0.754600  0.533000  1.0  0.0564
  H  H2469  1  0.984900  0.790000  0.579400  1.0  0.0532
  H  H2470  1  0.911100  0.776600  0.565200  1.0  0.0748
  H  H2471  1  0.902500  0.809600  0.556800  1.0  0.0566
  H  H2472  1  0.913900  0.801200  0.510200  1.0  0.0407
  H  H2473  1  0.920900  0.767800  0.518300  1.0  0.0547
  H  H2474  1  0.923100  0.889000  0.616600  1.0  0.067
  H  H2475  1  0.910600  0.876500  0.586300  1.0  0.0613
  H  H2476  1  0.903800  0.871000  0.663400  1.0  0.0785
  H  H2477  1  0.988600  0.854200  0.606500  1.0  0.0835
  H  H2478  1  0.969900  0.875000  0.627800  1.0  0.0606
  H  H2479  1  0.994500  0.794900  0.655100  1.0  0.0605
  H  H2480  1  0.004700  0.806200  0.623400  1.0  0.0571
  H  H2481  1  0.955600  0.856800  0.676000  1.0  0.0471
  H  H2482  1  0.966600  0.824900  0.685900  1.0  0.056
  H  H2483  1  0.373600  0.338900  0.436000  1.0  0.0451
  H  H2484  1  0.402400  0.285600  0.439600  1.0  0.0659
  H  H2485  1  0.470500  0.254600  0.533000  1.0  0.0585
  H  H2486  1  0.484900  0.290000  0.579400  1.0  0.0528
  H  H2487  1  0.411100  0.276600  0.565200  1.0  0.0748
  H  H2488  1  0.402500  0.309600  0.556800  1.0  0.0566
  H  H2489  1  0.413900  0.301200  0.510200  1.0  0.0407
  H  H2490  1  0.420900  0.267800  0.518300  1.0  0.0547
  H  H2491  1  0.423100  0.389000  0.616600  1.0  0.0669
  H  H2492  1  0.410600  0.376500  0.586300  1.0  0.0613
  H  H2493  1  0.403800  0.371000  0.663400  1.0  0.0789
  H  H2494  1  0.488600  0.354200  0.606500  1.0  0.0835
  H  H2495  1  0.469900  0.375000  0.627800  1.0  0.0606
  H  H2496  1  0.494500  0.294900  0.655100  1.0  0.0605
  H  H2497  1  0.504700  0.306200  0.623400  1.0  0.0571
  H  H2498  1  0.455600  0.356800  0.676000  1.0  0.0471
  H  H2499  1  0.466600  0.324900  0.685900  1.0  0.056
  H  H2500  1  0.373600  0.838900  0.936000  1.0  0.0455
  H  H2501  1  0.402400  0.785600  0.939600  1.0  0.0659
  H  H2502  1  0.470500  0.754600  0.033000  1.0  0.0585
  H  H2503  1  0.484900  0.790000  0.079400  1.0  0.0532
  H  H2504  1  0.411100  0.776600  0.065200  1.0  0.0748
  H  H2505  1  0.402500  0.809600  0.056800  1.0  0.0566
  H  H2506  1  0.413900  0.801200  0.010200  1.0  0.0407
  H  H2507  1  0.420900  0.767800  0.018300  1.0  0.0547
  H  H2508  1  0.423100  0.889000  0.116600  1.0  0.0669
  H  H2509  1  0.410600  0.876500  0.086300  1.0  0.0613
  H  H2510  1  0.403800  0.871000  0.163400  1.0  0.078
  H  H2511  1  0.488600  0.854200  0.106500  1.0  0.0835
  H  H2512  1  0.469900  0.875000  0.127800  1.0  0.0606
  H  H2513  1  0.494500  0.794900  0.155100  1.0  0.0605
  H  H2514  1  0.504700  0.806200  0.123400  1.0  0.0571
  H  H2515  1  0.455600  0.856800  0.176000  1.0  0.0471
  H  H2516  1  0.466600  0.824900  0.185900  1.0  0.056
  H  H2517  1  0.876400  0.838900  0.314000  1.0  0.045
  H  H2518  1  0.847600  0.785600  0.310400  1.0  0.0669
  H  H2519  1  0.779500  0.754600  0.217000  1.0  0.0561
  H  H2520  1  0.765100  0.790000  0.170600  1.0  0.0504
  H  H2521  1  0.838900  0.776600  0.184800  1.0  0.0736
  H  H2522  1  0.847500  0.809600  0.193200  1.0  0.057
  H  H2523  1  0.836100  0.801200  0.239800  1.0  0.04
  H  H2524  1  0.829100  0.767800  0.231700  1.0  0.0567
  H  H2525  1  0.826900  0.889000  0.133400  1.0  0.0658
  H  H2526  1  0.839400  0.876500  0.163700  1.0  0.0616
  H  H2527  1  0.846200  0.871000  0.086600  1.0  0.0775
  H  H2528  1  0.761400  0.854200  0.143500  1.0  0.0826
  H  H2529  1  0.780100  0.875000  0.122200  1.0  0.0602
  H  H2530  1  0.755500  0.794900  0.094900  1.0  0.0601
  H  H2531  1  0.745300  0.806200  0.126600  1.0  0.0583
  H  H2532  1  0.794400  0.856800  0.074000  1.0  0.0495
  H  H2533  1  0.783400  0.824900  0.064100  1.0  0.0568
  H  H2534  1  0.876400  0.338900  0.814000  1.0  0.0456
  H  H2535  1  0.847600  0.285600  0.810400  1.0  0.0664
  H  H2536  1  0.779500  0.254600  0.717000  1.0  0.0561
  H  H2537  1  0.765100  0.290000  0.670600  1.0  0.05
  H  H2538  1  0.838900  0.276600  0.684800  1.0  0.0736
  H  H2539  1  0.847500  0.309600  0.693200  1.0  0.057
  H  H2540  1  0.836100  0.301200  0.739800  1.0  0.04
  H  H2541  1  0.829100  0.267800  0.731700  1.0  0.0567
  H  H2542  1  0.826900  0.389000  0.633400  1.0  0.0658
  H  H2543  1  0.839400  0.376500  0.663700  1.0  0.0625
  H  H2544  1  0.846200  0.371000  0.586600  1.0  0.0775
  H  H2545  1  0.761400  0.354200  0.643500  1.0  0.0826
  H  H2546  1  0.780100  0.375000  0.622200  1.0  0.0602
  H  H2547  1  0.755500  0.294900  0.594900  1.0  0.0601
  H  H2548  1  0.745300  0.306200  0.626600  1.0  0.0583
  H  H2549  1  0.794400  0.356800  0.574000  1.0  0.0495
  H  H2550  1  0.783400  0.324900  0.564100  1.0  0.0568
  H  H2551  1  0.376400  0.838900  0.814000  1.0  0.0456
  H  H2552  1  0.347600  0.785600  0.810400  1.0  0.0664
  H  H2553  1  0.279500  0.754600  0.717000  1.0  0.058
  H  H2554  1  0.265100  0.790000  0.670600  1.0  0.0504
  H  H2555  1  0.338900  0.776600  0.684800  1.0  0.0736
  H  H2556  1  0.347500  0.809600  0.693200  1.0  0.057
  H  H2557  1  0.336100  0.801200  0.739800  1.0  0.04
  H  H2558  1  0.329100  0.767800  0.731700  1.0  0.0567
  H  H2559  1  0.326900  0.889000  0.633400  1.0  0.0654
  H  H2560  1  0.339400  0.876500  0.663700  1.0  0.063
  H  H2561  1  0.346200  0.871000  0.586600  1.0  0.0762
  H  H2562  1  0.261400  0.854200  0.643500  1.0  0.0826
  H  H2563  1  0.280100  0.875000  0.622200  1.0  0.0602
  H  H2564  1  0.255500  0.794900  0.594900  1.0  0.0601
  H  H2565  1  0.245300  0.806200  0.626600  1.0  0.0583
  H  H2566  1  0.294400  0.856800  0.574000  1.0  0.0495
  H  H2567  1  0.283400  0.824900  0.564100  1.0  0.0568
  H  H2568  1  0.376400  0.338900  0.314000  1.0  0.0457
  H  H2569  1  0.347600  0.285600  0.310400  1.0  0.0664
  H  H2570  1  0.279500  0.254600  0.217000  1.0  0.058
  H  H2571  1  0.265100  0.290000  0.170600  1.0  0.05
  H  H2572  1  0.338900  0.276600  0.184800  1.0  0.0736
  H  H2573  1  0.347500  0.309600  0.193200  1.0  0.057
  H  H2574  1  0.336100  0.301200  0.239800  1.0  0.04
  H  H2575  1  0.329100  0.267800  0.231700  1.0  0.0567
  H  H2576  1  0.326900  0.389000  0.133400  1.0  0.0654
  H  H2577  1  0.339400  0.376500  0.163700  1.0  0.063
  H  H2578  1  0.346200  0.371000  0.086600  1.0  0.0775
  H  H2579  1  0.261400  0.354200  0.143500  1.0  0.0826
  H  H2580  1  0.280100  0.375000  0.122200  1.0  0.0602
  H  H2581  1  0.255500  0.294900  0.094900  1.0  0.0601
  H  H2582  1  0.245300  0.306200  0.126600  1.0  0.0583
  H  H2583  1  0.294400  0.356800  0.074000  1.0  0.0495
  H  H2584  1  0.283400  0.324900  0.064100  1.0  0.0568
  H  H2585  1  0.623600  0.564000  0.588900  1.0  0.0461
  H  H2586  1  0.652400  0.560400  0.535600  1.0  0.0675
  H  H2587  1  0.720500  0.467000  0.504600  1.0  0.0584
  H  H2588  1  0.734900  0.420600  0.540000  1.0  0.0535
  H  H2589  1  0.661100  0.434800  0.526600  1.0  0.0769
  H  H2590  1  0.652500  0.443200  0.559600  1.0  0.0567
  H  H2591  1  0.663900  0.489800  0.551200  1.0  0.0404
  H  H2592  1  0.670900  0.481700  0.517800  1.0  0.0556
  H  H2593  1  0.673100  0.383400  0.639000  1.0  0.066
  H  H2594  1  0.660600  0.413700  0.626500  1.0  0.0632
  H  H2595  1  0.653800  0.336600  0.621000  1.0  0.0784
  H  H2596  1  0.738600  0.393500  0.604200  1.0  0.0823
  H  H2597  1  0.719900  0.372200  0.625000  1.0  0.0547
  H  H2598  1  0.744500  0.344900  0.544900  1.0  0.0608
  H  H2599  1  0.754700  0.376600  0.556200  1.0  0.0519
  H  H2600  1  0.705600  0.324000  0.606800  1.0  0.0481
  H  H2601  1  0.716600  0.314100  0.574900  1.0  0.0568
  H  H2602  1  0.623600  0.064000  0.088900  1.0  0.0458
  H  H2603  1  0.652400  0.060400  0.035600  1.0  0.0653
  H  H2604  1  0.720500  0.967000  0.004600  1.0  0.0584
  H  H2605  1  0.734900  0.920600  0.040000  1.0  0.0535
  H  H2606  1  0.661100  0.934800  0.026600  1.0  0.0769
  H  H2607  1  0.652500  0.943200  0.059600  1.0  0.0567
  H  H2608  1  0.663900  0.989800  0.051200  1.0  0.0404
  H  H2609  1  0.670900  0.981700  0.017800  1.0  0.0556
  H  H2610  1  0.673100  0.883400  0.139000  1.0  0.066
  H  H2611  1  0.660600  0.913700  0.126500  1.0  0.0611
  H  H2612  1  0.653800  0.836600  0.121000  1.0  0.0784
  H  H2613  1  0.738600  0.893500  0.104200  1.0  0.0823
  H  H2614  1  0.719900  0.872200  0.125000  1.0  0.0547
  H  H2615  1  0.744500  0.844900  0.044900  1.0  0.0608
  H  H2616  1  0.754700  0.876600  0.056200  1.0  0.0519
  H  H2617  1  0.705600  0.824000  0.106800  1.0  0.0481
  H  H2618  1  0.716600  0.814100  0.074900  1.0  0.0568
  H  H2619  1  0.123600  0.564000  0.088900  1.0  0.0429
  H  H2620  1  0.152400  0.560400  0.035600  1.0  0.0706
  H  H2621  1  0.220500  0.467000  0.004600  1.0  0.0569
  H  H2622  1  0.234900  0.420600  0.040000  1.0  0.0532
  H  H2623  1  0.161100  0.434800  0.026600  1.0  0.0769
  H  H2624  1  0.152500  0.443200  0.059600  1.0  0.0567
  H  H2625  1  0.163900  0.489800  0.051200  1.0  0.0404
  H  H2626  1  0.170900  0.481700  0.017800  1.0  0.0556
  H  H2627  1  0.173100  0.383400  0.139000  1.0  0.0658
  H  H2628  1  0.160600  0.413700  0.126500  1.0  0.0609
  H  H2629  1  0.153800  0.336600  0.121000  1.0  0.079
  H  H2630  1  0.238600  0.393500  0.104200  1.0  0.0823
  H  H2631  1  0.219900  0.372200  0.125000  1.0  0.0547
  H  H2632  1  0.244500  0.344900  0.044900  1.0  0.0608
  H  H2633  1  0.254700  0.376600  0.056200  1.0  0.0519
  H  H2634  1  0.205600  0.324000  0.106800  1.0  0.0481
  H  H2635  1  0.216600  0.314100  0.074900  1.0  0.0568
  H  H2636  1  0.123600  0.064000  0.588900  1.0  0.0467
  H  H2637  1  0.152400  0.060400  0.535600  1.0  0.0694
  H  H2638  1  0.220500  0.967000  0.504600  1.0  0.0569
  H  H2639  1  0.234900  0.920600  0.540000  1.0  0.0535
  H  H2640  1  0.161100  0.934800  0.526600  1.0  0.0769
  H  H2641  1  0.152500  0.943200  0.559600  1.0  0.0567
  H  H2642  1  0.163900  0.989800  0.551200  1.0  0.0404
  H  H2643  1  0.170900  0.981700  0.517800  1.0  0.0556
  H  H2644  1  0.173100  0.883400  0.639000  1.0  0.0658
  H  H2645  1  0.160600  0.913700  0.626500  1.0  0.0632
  H  H2646  1  0.153800  0.836600  0.621000  1.0  0.079
  H  H2647  1  0.238600  0.893500  0.604200  1.0  0.0823
  H  H2648  1  0.219900  0.872200  0.625000  1.0  0.0547
  H  H2649  1  0.244500  0.844900  0.544900  1.0  0.0608
  H  H2650  1  0.254700  0.876600  0.556200  1.0  0.0519
  H  H2651  1  0.205600  0.824000  0.606800  1.0  0.0481
  H  H2652  1  0.216600  0.814100  0.574900  1.0  0.0568
  H  H2653  1  0.626400  0.186000  0.088900  1.0  0.0463
  H  H2654  1  0.597600  0.189600  0.035600  1.0  0.0672
  H  H2655  1  0.529500  0.283000  0.004600  1.0  0.0577
  H  H2656  1  0.515100  0.329400  0.040000  1.0  0.0505
  H  H2657  1  0.588900  0.315200  0.026600  1.0  0.0754
  H  H2658  1  0.597500  0.306800  0.059600  1.0  0.0561
  H  H2659  1  0.586100  0.260200  0.051200  1.0  0.04
  H  H2660  1  0.579100  0.268300  0.017800  1.0  0.056
  H  H2661  1  0.576900  0.366600  0.139000  1.0  0.0645
  H  H2662  1  0.589400  0.336300  0.126500  1.0  0.0629
  H  H2663  1  0.596200  0.413400  0.121000  1.0  0.0763
  H  H2664  1  0.511400  0.356500  0.104200  1.0  0.083
  H  H2665  1  0.530100  0.377800  0.125000  1.0  0.0556
  H  H2666  1  0.505500  0.405100  0.044900  1.0  0.0614
  H  H2667  1  0.495300  0.373400  0.056200  1.0  0.0502
  H  H2668  1  0.544400  0.426000  0.106800  1.0  0.0502
  H  H2669  1  0.533400  0.435900  0.074900  1.0  0.0588
  H  H2670  1  0.626400  0.686000  0.588900  1.0  0.0471
  H  H2671  1  0.597600  0.689600  0.535600  1.0  0.0672
  H  H2672  1  0.529500  0.783000  0.504600  1.0  0.0577
  H  H2673  1  0.515100  0.829400  0.540000  1.0  0.0509
  H  H2674  1  0.588900  0.815200  0.526600  1.0  0.0754
  H  H2675  1  0.597500  0.806800  0.559600  1.0  0.0561
  H  H2676  1  0.586100  0.760200  0.551200  1.0  0.04
  H  H2677  1  0.579100  0.768300  0.517800  1.0  0.056
  H  H2678  1  0.576900  0.866600  0.639000  1.0  0.0641
  H  H2679  1  0.589400  0.836300  0.626500  1.0  0.0644
  H  H2680  1  0.596200  0.913400  0.621000  1.0  0.0774
  H  H2681  1  0.511400  0.856500  0.604200  1.0  0.083
  H  H2682  1  0.530100  0.877800  0.625000  1.0  0.0556
  H  H2683  1  0.505500  0.905100  0.544900  1.0  0.0614
  H  H2684  1  0.495300  0.873400  0.556200  1.0  0.0502
  H  H2685  1  0.544400  0.926000  0.606800  1.0  0.0502
  H  H2686  1  0.533400  0.935900  0.574900  1.0  0.0588
  H  H2687  1  0.126400  0.186000  0.588900  1.0  0.0463
  H  H2688  1  0.097600  0.189600  0.535600  1.0  0.0672
  H  H2689  1  0.029500  0.283000  0.504600  1.0  0.0577
  H  H2690  1  0.015100  0.329400  0.540000  1.0  0.0509
  H  H2691  1  0.088900  0.315200  0.526600  1.0  0.0754
  H  H2692  1  0.097500  0.306800  0.559600  1.0  0.0561
  H  H2693  1  0.086100  0.260200  0.551200  1.0  0.04
  H  H2694  1  0.079100  0.268300  0.517800  1.0  0.056
  H  H2695  1  0.076900  0.366600  0.639000  1.0  0.0641
  H  H2696  1  0.089400  0.336300  0.626500  1.0  0.0644
  H  H2697  1  0.096200  0.413400  0.621000  1.0  0.076
  H  H2698  1  0.011400  0.356500  0.604200  1.0  0.083
  H  H2699  1  0.030100  0.377800  0.625000  1.0  0.0556
  H  H2700  1  0.005500  0.405100  0.544900  1.0  0.0614
  H  H2701  1  0.995300  0.373400  0.556200  1.0  0.0502
  H  H2702  1  0.044400  0.426000  0.606800  1.0  0.0502
  H  H2703  1  0.033400  0.435900  0.574900  1.0  0.0588
  H  H2704  1  0.126400  0.686000  0.088900  1.0  0.0464
  H  H2705  1  0.097600  0.689600  0.035600  1.0  0.0672
  H  H2706  1  0.029500  0.783000  0.004600  1.0  0.0577
  H  H2707  1  0.015100  0.829400  0.040000  1.0  0.0509
  H  H2708  1  0.088900  0.815200  0.026600  1.0  0.0754
  H  H2709  1  0.097500  0.806800  0.059600  1.0  0.0561
  H  H2710  1  0.086100  0.760200  0.051200  1.0  0.04
  H  H2711  1  0.079100  0.768300  0.017800  1.0  0.056
  H  H2712  1  0.076900  0.866600  0.139000  1.0  0.0641
  H  H2713  1  0.089400  0.836300  0.126500  1.0  0.0644
  H  H2714  1  0.096200  0.913400  0.121000  1.0  0.0774
  H  H2715  1  0.011400  0.856500  0.104200  1.0  0.083
  H  H2716  1  0.030100  0.877800  0.125000  1.0  0.0556
  H  H2717  1  0.005500  0.905100  0.044900  1.0  0.0614
  H  H2718  1  0.995300  0.873400  0.056200  1.0  0.0502
  H  H2719  1  0.044400  0.926000  0.106800  1.0  0.0502
  H  H2720  1  0.033400  0.935900  0.074900  1.0  0.0588
  H  H2721  1  0.123600  0.686000  0.161100  1.0  0.0462
  H  H2722  1  0.152400  0.689600  0.214400  1.0  0.0673
  H  H2723  1  0.220500  0.783000  0.245400  1.0  0.0578
  H  H2724  1  0.234900  0.829400  0.210000  1.0  0.0532
  H  H2725  1  0.161100  0.815200  0.223400  1.0  0.0748
  H  H2726  1  0.152500  0.806800  0.190400  1.0  0.0559
  H  H2727  1  0.163900  0.760200  0.198800  1.0  0.0403
  H  H2728  1  0.170900  0.768300  0.232200  1.0  0.0557
  H  H2729  1  0.173100  0.866600  0.111000  1.0  0.0671
  H  H2730  1  0.160600  0.836300  0.123500  1.0  0.0614
  H  H2731  1  0.153800  0.913400  0.129000  1.0  0.078
  H  H2732  1  0.238600  0.856500  0.145800  1.0  0.0845
  H  H2733  1  0.219900  0.877800  0.125000  1.0  0.0544
  H  H2734  1  0.244500  0.905100  0.205100  1.0  0.0595
  H  H2735  1  0.254700  0.873400  0.193800  1.0  0.0529
  H  H2736  1  0.205600  0.926000  0.143200  1.0  0.0493
  H  H2737  1  0.216600  0.935900  0.175100  1.0  0.0567
  H  H2738  1  0.123600  0.186000  0.661100  1.0  0.0462
  H  H2739  1  0.152400  0.189600  0.714400  1.0  0.0673
  H  H2740  1  0.220500  0.283000  0.745400  1.0  0.0563
  H  H2741  1  0.234900  0.329400  0.710000  1.0  0.0529
  H  H2742  1  0.161100  0.315200  0.723400  1.0  0.0748
  H  H2743  1  0.152500  0.306800  0.690400  1.0  0.0559
  H  H2744  1  0.163900  0.260200  0.698800  1.0  0.0403
  H  H2745  1  0.170900  0.268300  0.732200  1.0  0.0557
  H  H2746  1  0.173100  0.366600  0.611000  1.0  0.0671
  H  H2747  1  0.160600  0.336300  0.623500  1.0  0.0633
  H  H2748  1  0.153800  0.413400  0.629000  1.0  0.078
  H  H2749  1  0.238600  0.356500  0.645800  1.0  0.0845
  H  H2750  1  0.219900  0.377800  0.625000  1.0  0.0544
  H  H2751  1  0.244500  0.405100  0.705100  1.0  0.0595
  H  H2752  1  0.254700  0.373400  0.693800  1.0  0.0529
  H  H2753  1  0.205600  0.426000  0.643200  1.0  0.0493
  H  H2754  1  0.216600  0.435900  0.675100  1.0  0.0567
  H  H2755  1  0.623600  0.686000  0.661100  1.0  0.0462
  H  H2756  1  0.652400  0.689600  0.714400  1.0  0.0675
  H  H2757  1  0.720500  0.783000  0.745400  1.0  0.0578
  H  H2758  1  0.734900  0.829400  0.710000  1.0  0.0532
  H  H2759  1  0.661100  0.815200  0.723400  1.0  0.0748
  H  H2760  1  0.652500  0.806800  0.690400  1.0  0.0559
  H  H2761  1  0.663900  0.760200  0.698800  1.0  0.0403
  H  H2762  1  0.670900  0.768300  0.732200  1.0  0.0557
  H  H2763  1  0.673100  0.866600  0.611000  1.0  0.0673
  H  H2764  1  0.660600  0.836300  0.623500  1.0  0.0614
  H  H2765  1  0.653800  0.913400  0.629000  1.0  0.0785
  H  H2766  1  0.738600  0.856500  0.645800  1.0  0.0845
  H  H2767  1  0.719900  0.877800  0.625000  1.0  0.0544
  H  H2768  1  0.744500  0.905100  0.705100  1.0  0.0595
  H  H2769  1  0.754700  0.873400  0.693800  1.0  0.0529
  H  H2770  1  0.705600  0.926000  0.643200  1.0  0.0493
  H  H2771  1  0.716600  0.935900  0.675100  1.0  0.0567
  H  H2772  1  0.623600  0.186000  0.161100  1.0  0.0475
  H  H2773  1  0.652400  0.189600  0.214400  1.0  0.0675
  H  H2774  1  0.720500  0.283000  0.245400  1.0  0.0578
  H  H2775  1  0.734900  0.329400  0.210000  1.0  0.0532
  H  H2776  1  0.661100  0.315200  0.223400  1.0  0.0748
  H  H2777  1  0.652500  0.306800  0.190400  1.0  0.0559
  H  H2778  1  0.663900  0.260200  0.198800  1.0  0.0403
  H  H2779  1  0.670900  0.268300  0.232200  1.0  0.0557
  H  H2780  1  0.673100  0.366600  0.111000  1.0  0.0673
  H  H2781  1  0.660600  0.336300  0.123500  1.0  0.061
  H  H2782  1  0.653800  0.413400  0.129000  1.0  0.0793
  H  H2783  1  0.738600  0.356500  0.145800  1.0  0.0845
  H  H2784  1  0.719900  0.377800  0.125000  1.0  0.0544
  H  H2785  1  0.744500  0.405100  0.205100  1.0  0.0595
  H  H2786  1  0.754700  0.373400  0.193800  1.0  0.0529
  H  H2787  1  0.705600  0.426000  0.143200  1.0  0.0493
  H  H2788  1  0.716600  0.435900  0.175100  1.0  0.0567
  H  H2789  1  0.126400  0.064000  0.661100  1.0  0.0456
  H  H2790  1  0.097600  0.060400  0.714400  1.0  0.0663
  H  H2791  1  0.029500  0.967000  0.745400  1.0  0.058
  H  H2792  1  0.015100  0.920600  0.710000  1.0  0.0507
  H  H2793  1  0.088900  0.934800  0.723400  1.0  0.0726
  H  H2794  1  0.097500  0.943200  0.690400  1.0  0.0557
  H  H2795  1  0.086100  0.989800  0.698800  1.0  0.0397
  H  H2796  1  0.079100  0.981700  0.732200  1.0  0.055
  H  H2797  1  0.076900  0.883400  0.611000  1.0  0.0633
  H  H2798  1  0.089400  0.913700  0.623500  1.0  0.0626
  H  H2799  1  0.096200  0.836600  0.629000  1.0  0.0756
  H  H2800  1  0.011400  0.893500  0.645800  1.0  0.0869
  H  H2801  1  0.030100  0.872200  0.625000  1.0  0.0545
  H  H2802  1  0.005500  0.844900  0.705100  1.0  0.0616
  H  H2803  1  0.995300  0.876600  0.693800  1.0  0.0518
  H  H2804  1  0.044400  0.824000  0.643200  1.0  0.0477
  H  H2805  1  0.033400  0.814100  0.675100  1.0  0.0574
  H  H2806  1  0.126400  0.564000  0.161100  1.0  0.0455
  H  H2807  1  0.097600  0.560400  0.214400  1.0  0.0661
  H  H2808  1  0.029500  0.467000  0.245400  1.0  0.059
  H  H2809  1  0.015100  0.420600  0.210000  1.0  0.051
  H  H2810  1  0.088900  0.434800  0.223400  1.0  0.0726
  H  H2811  1  0.097500  0.443200  0.190400  1.0  0.0557
  H  H2812  1  0.086100  0.489800  0.198800  1.0  0.0397
  H  H2813  1  0.079100  0.481700  0.232200  1.0  0.055
  H  H2814  1  0.076900  0.383400  0.111000  1.0  0.0633
  H  H2815  1  0.089400  0.413700  0.123500  1.0  0.0626
  H  H2816  1  0.096200  0.336600  0.129000  1.0  0.0765
  H  H2817  1  0.011400  0.393500  0.145800  1.0  0.0869
  H  H2818  1  0.030100  0.372200  0.125000  1.0  0.0545
  H  H2819  1  0.005500  0.344900  0.205100  1.0  0.0616
  H  H2820  1  0.995300  0.376600  0.193800  1.0  0.0518
  H  H2821  1  0.044400  0.324000  0.143200  1.0  0.0477
  H  H2822  1  0.033400  0.314100  0.175100  1.0  0.0574
  H  H2823  1  0.626400  0.064000  0.161100  1.0  0.0455
  H  H2824  1  0.597600  0.060400  0.214400  1.0  0.0663
  H  H2825  1  0.529500  0.967000  0.245400  1.0  0.058
  H  H2826  1  0.515100  0.920600  0.210000  1.0  0.051
  H  H2827  1  0.588900  0.934800  0.223400  1.0  0.0726
  H  H2828  1  0.597500  0.943200  0.190400  1.0  0.0557
  H  H2829  1  0.586100  0.989800  0.198800  1.0  0.0397
  H  H2830  1  0.579100  0.981700  0.232200  1.0  0.055
  H  H2831  1  0.576900  0.883400  0.111000  1.0  0.0639
  H  H2832  1  0.589400  0.913700  0.123500  1.0  0.0612
  H  H2833  1  0.596200  0.836600  0.129000  1.0  0.0775
  H  H2834  1  0.511400  0.893500  0.145800  1.0  0.0869
  H  H2835  1  0.530100  0.872200  0.125000  1.0  0.0545
  H  H2836  1  0.505500  0.844900  0.205100  1.0  0.0616
  H  H2837  1  0.495300  0.876600  0.193800  1.0  0.0518
  H  H2838  1  0.544400  0.824000  0.143200  1.0  0.0477
  H  H2839  1  0.533400  0.814100  0.175100  1.0  0.0574
  H  H2840  1  0.626400  0.564000  0.661100  1.0  0.0456
  H  H2841  1  0.597600  0.560400  0.714400  1.0  0.0661
  H  H2842  1  0.529500  0.467000  0.745400  1.0  0.058
  H  H2843  1  0.515100  0.420600  0.710000  1.0  0.0507
  H  H2844  1  0.588900  0.434800  0.723400  1.0  0.0726
  H  H2845  1  0.597500  0.443200  0.690400  1.0  0.0557
  H  H2846  1  0.586100  0.489800  0.698800  1.0  0.0397
  H  H2847  1  0.579100  0.481700  0.732200  1.0  0.055
  H  H2848  1  0.576900  0.383400  0.611000  1.0  0.0639
  H  H2849  1  0.589400  0.413700  0.623500  1.0  0.0626
  H  H2850  1  0.596200  0.336600  0.629000  1.0  0.0775
  H  H2851  1  0.511400  0.393500  0.645800  1.0  0.0869
  H  H2852  1  0.530100  0.372200  0.625000  1.0  0.0545
  H  H2853  1  0.505500  0.344900  0.705100  1.0  0.0616
  H  H2854  1  0.495300  0.376600  0.693800  1.0  0.0518
  H  H2855  1  0.544400  0.324000  0.643200  1.0  0.0477
  H  H2856  1  0.533400  0.314100  0.675100  1.0  0.0574
  H  H2857  1  0.064000  0.661100  0.126400  1.0  0.0454
  H  H2858  1  0.060400  0.714400  0.097600  1.0  0.0652
  H  H2859  1  0.967000  0.745400  0.029500  1.0  0.0599
  H  H2860  1  0.920600  0.710000  0.015100  1.0  0.053
  H  H2861  1  0.934800  0.723400  0.088900  1.0  0.074
  H  H2862  1  0.943200  0.690400  0.097500  1.0  0.059
  H  H2863  1  0.989800  0.698800  0.086100  1.0  0.0406
  H  H2864  1  0.981700  0.732200  0.079100  1.0  0.0541
  H  H2865  1  0.883400  0.611000  0.076900  1.0  0.069
  H  H2866  1  0.913700  0.623500  0.089400  1.0  0.0585
  H  H2867  1  0.836600  0.629000  0.096200  1.0  0.0748
  H  H2868  1  0.893500  0.645800  0.011400  1.0  0.0833
  H  H2869  1  0.872200  0.625000  0.030100  1.0  0.0589
  H  H2870  1  0.844900  0.705100  0.005500  1.0  0.0623
  H  H2871  1  0.876600  0.693800  0.995300  1.0  0.0468
  H  H2872  1  0.824000  0.643200  0.044400  1.0  0.0489
  H  H2873  1  0.814100  0.675100  0.033400  1.0  0.0534
  H  H2874  1  0.064000  0.161100  0.626400  1.0  0.0453
  H  H2875  1  0.060400  0.214400  0.597600  1.0  0.0652
  H  H2876  1  0.967000  0.245400  0.529500  1.0  0.0599
  H  H2877  1  0.920600  0.210000  0.515100  1.0  0.0534
  H  H2878  1  0.934800  0.223400  0.588900  1.0  0.074
  H  H2879  1  0.943200  0.190400  0.597500  1.0  0.059
  H  H2880  1  0.989800  0.198800  0.586100  1.0  0.0406
  H  H2881  1  0.981700  0.232200  0.579100  1.0  0.0541
  H  H2882  1  0.883400  0.111000  0.576900  1.0  0.0692
  H  H2883  1  0.913700  0.123500  0.589400  1.0  0.0573
  H  H2884  1  0.836600  0.129000  0.596200  1.0  0.0757
  H  H2885  1  0.893500  0.145800  0.511400  1.0  0.0833
  H  H2886  1  0.872200  0.125000  0.530100  1.0  0.0589
  H  H2887  1  0.844900  0.205100  0.505500  1.0  0.0623
  H  H2888  1  0.876600  0.193800  0.495300  1.0  0.0468
  H  H2889  1  0.824000  0.143200  0.544400  1.0  0.0489
  H  H2890  1  0.814100  0.175100  0.533400  1.0  0.0534
  H  H2891  1  0.564000  0.661100  0.626400  1.0  0.0454
  H  H2892  1  0.560400  0.714400  0.597600  1.0  0.0656
  H  H2893  1  0.467000  0.745400  0.529500  1.0  0.0609
  H  H2894  1  0.420600  0.710000  0.515100  1.0  0.0534
  H  H2895  1  0.434800  0.723400  0.588900  1.0  0.074
  H  H2896  1  0.443200  0.690400  0.597500  1.0  0.059
  H  H2897  1  0.489800  0.698800  0.586100  1.0  0.0406
  H  H2898  1  0.481700  0.732200  0.579100  1.0  0.0541
  H  H2899  1  0.383400  0.611000  0.576900  1.0  0.0692
  H  H2900  1  0.413700  0.623500  0.589400  1.0  0.0585
  H  H2901  1  0.336600  0.629000  0.596200  1.0  0.0766
  H  H2902  1  0.393500  0.645800  0.511400  1.0  0.0833
  H  H2903  1  0.372200  0.625000  0.530100  1.0  0.0589
  H  H2904  1  0.344900  0.705100  0.505500  1.0  0.0623
  H  H2905  1  0.376600  0.693800  0.495300  1.0  0.0468
  H  H2906  1  0.324000  0.643200  0.544400  1.0  0.0489
  H  H2907  1  0.314100  0.675100  0.533400  1.0  0.0534
  H  H2908  1  0.564000  0.161100  0.126400  1.0  0.0453
  H  H2909  1  0.560400  0.214400  0.097600  1.0  0.0652
  H  H2910  1  0.467000  0.245400  0.029500  1.0  0.0609
  H  H2911  1  0.420600  0.210000  0.015100  1.0  0.0534
  H  H2912  1  0.434800  0.223400  0.088900  1.0  0.074
  H  H2913  1  0.443200  0.190400  0.097500  1.0  0.059
  H  H2914  1  0.489800  0.198800  0.086100  1.0  0.0406
  H  H2915  1  0.481700  0.232200  0.079100  1.0  0.0541
  H  H2916  1  0.383400  0.111000  0.076900  1.0  0.069
  H  H2917  1  0.413700  0.123500  0.089400  1.0  0.0585
  H  H2918  1  0.336600  0.129000  0.096200  1.0  0.0766
  H  H2919  1  0.393500  0.145800  0.011400  1.0  0.0833
  H  H2920  1  0.372200  0.125000  0.030100  1.0  0.0589
  H  H2921  1  0.344900  0.205100  0.005500  1.0  0.0623
  H  H2922  1  0.376600  0.193800  0.995300  1.0  0.0468
  H  H2923  1  0.324000  0.143200  0.044400  1.0  0.0489
  H  H2924  1  0.314100  0.175100  0.033400  1.0  0.0534
  H  H2925  1  0.686000  0.161100  0.123600  1.0  0.0439
  H  H2926  1  0.689600  0.214400  0.152400  1.0  0.067
  H  H2927  1  0.783000  0.245400  0.220500  1.0  0.06
  H  H2928  1  0.829400  0.210000  0.234900  1.0  0.0553
  H  H2929  1  0.815200  0.223400  0.161100  1.0  0.0749
  H  H2930  1  0.806800  0.190400  0.152500  1.0  0.0577
  H  H2931  1  0.760200  0.198800  0.163900  1.0  0.0397
  H  H2932  1  0.768300  0.232200  0.170900  1.0  0.0557
  H  H2933  1  0.866600  0.111000  0.173100  1.0  0.0702
  H  H2934  1  0.836300  0.123500  0.160600  1.0  0.0554
  H  H2935  1  0.913400  0.129000  0.153800  1.0  0.078
  H  H2936  1  0.856500  0.145800  0.238600  1.0  0.0833
  H  H2937  1  0.877800  0.125000  0.219900  1.0  0.0566
  H  H2938  1  0.905100  0.205100  0.244500  1.0  0.0609
  H  H2939  1  0.873400  0.193800  0.254700  1.0  0.0493
  H  H2940  1  0.926000  0.143200  0.205600  1.0  0.0479
  H  H2941  1  0.935900  0.175100  0.216600  1.0  0.0568
  H  H2942  1  0.686000  0.661100  0.623600  1.0  0.0435
  H  H2943  1  0.689600  0.714400  0.652400  1.0  0.0665
  H  H2944  1  0.783000  0.745400  0.720500  1.0  0.06
  H  H2945  1  0.829400  0.710000  0.734900  1.0  0.0553
  H  H2946  1  0.815200  0.723400  0.661100  1.0  0.0749
  H  H2947  1  0.806800  0.690400  0.652500  1.0  0.0577
  H  H2948  1  0.760200  0.698800  0.663900  1.0  0.0397
  H  H2949  1  0.768300  0.732200  0.670900  1.0  0.0557
  H  H2950  1  0.866600  0.611000  0.673100  1.0  0.0707
  H  H2951  1  0.836300  0.623500  0.660600  1.0  0.0554
  H  H2952  1  0.913400  0.629000  0.653800  1.0  0.0774
  H  H2953  1  0.856500  0.645800  0.738600  1.0  0.0833
  H  H2954  1  0.877800  0.625000  0.719900  1.0  0.0566
  H  H2955  1  0.905100  0.705100  0.744500  1.0  0.0609
  H  H2956  1  0.873400  0.693800  0.754700  1.0  0.0493
  H  H2957  1  0.926000  0.643200  0.705600  1.0  0.0479
  H  H2958  1  0.935900  0.675100  0.716600  1.0  0.0568
  H  H2959  1  0.186000  0.161100  0.623600  1.0  0.0446
  H  H2960  1  0.189600  0.214400  0.652400  1.0  0.0665
  H  H2961  1  0.283000  0.245400  0.720500  1.0  0.06
  H  H2962  1  0.329400  0.210000  0.734900  1.0  0.0553
  H  H2963  1  0.315200  0.223400  0.661100  1.0  0.0749
  H  H2964  1  0.306800  0.190400  0.652500  1.0  0.0577
  H  H2965  1  0.260200  0.198800  0.663900  1.0  0.0397
  H  H2966  1  0.268300  0.232200  0.670900  1.0  0.0557
  H  H2967  1  0.366600  0.111000  0.673100  1.0  0.0707
  H  H2968  1  0.336300  0.123500  0.660600  1.0  0.0554
  H  H2969  1  0.413400  0.129000  0.653800  1.0  0.0783
  H  H2970  1  0.356500  0.145800  0.738600  1.0  0.0833
  H  H2971  1  0.377800  0.125000  0.719900  1.0  0.0566
  H  H2972  1  0.405100  0.205100  0.744500  1.0  0.0609
  H  H2973  1  0.373400  0.193800  0.754700  1.0  0.0493
  H  H2974  1  0.426000  0.143200  0.705600  1.0  0.0479
  H  H2975  1  0.435900  0.175100  0.716600  1.0  0.0568
  H  H2976  1  0.186000  0.661100  0.123600  1.0  0.0439
  H  H2977  1  0.189600  0.714400  0.152400  1.0  0.0665
  H  H2978  1  0.283000  0.745400  0.220500  1.0  0.0589
  H  H2979  1  0.329400  0.710000  0.234900  1.0  0.0548
  H  H2980  1  0.315200  0.723400  0.161100  1.0  0.0749
  H  H2981  1  0.306800  0.690400  0.152500  1.0  0.0577
  H  H2982  1  0.260200  0.698800  0.163900  1.0  0.0397
  H  H2983  1  0.268300  0.732200  0.170900  1.0  0.0557
  H  H2984  1  0.366600  0.611000  0.173100  1.0  0.0702
  H  H2985  1  0.336300  0.623500  0.160600  1.0  0.0554
  H  H2986  1  0.413400  0.629000  0.153800  1.0  0.0773
  H  H2987  1  0.356500  0.645800  0.238600  1.0  0.0833
  H  H2988  1  0.377800  0.625000  0.219900  1.0  0.0566
  H  H2989  1  0.405100  0.705100  0.244500  1.0  0.0609
  H  H2990  1  0.373400  0.693800  0.254700  1.0  0.0493
  H  H2991  1  0.426000  0.643200  0.205600  1.0  0.0479
  H  H2992  1  0.435900  0.675100  0.216600  1.0  0.0568
  H  H2993  1  0.186000  0.088900  0.626400  1.0  0.0433
  H  H2994  1  0.189600  0.035600  0.597600  1.0  0.0679
  H  H2995  1  0.283000  0.004600  0.529500  1.0  0.058
  H  H2996  1  0.329400  0.040000  0.515100  1.0  0.0536
  H  H2997  1  0.315200  0.026600  0.588900  1.0  0.0746
  H  H2998  1  0.306800  0.059600  0.597500  1.0  0.0577
  H  H2999  1  0.260200  0.051200  0.586100  1.0  0.0394
  H  H3000  1  0.268300  0.017800  0.579100  1.0  0.0568
  H  H3001  1  0.366600  0.139000  0.576900  1.0  0.0708
  H  H3002  1  0.336300  0.126500  0.589400  1.0  0.0556
  H  H3003  1  0.413400  0.121000  0.596200  1.0  0.0788
  H  H3004  1  0.356500  0.104200  0.511400  1.0  0.0848
  H  H3005  1  0.377800  0.125000  0.530100  1.0  0.0585
  H  H3006  1  0.405100  0.044900  0.505500  1.0  0.0592
  H  H3007  1  0.373400  0.056200  0.495300  1.0  0.0492
  H  H3008  1  0.426000  0.106800  0.544400  1.0  0.048
  H  H3009  1  0.435900  0.074900  0.533400  1.0  0.0559
  H  H3010  1  0.186000  0.588900  0.126400  1.0  0.0433
  H  H3011  1  0.189600  0.535600  0.097600  1.0  0.0679
  H  H3012  1  0.283000  0.504600  0.029500  1.0  0.058
  H  H3013  1  0.329400  0.540000  0.015100  1.0  0.0541
  H  H3014  1  0.315200  0.526600  0.088900  1.0  0.0746
  H  H3015  1  0.306800  0.559600  0.097500  1.0  0.0577
  H  H3016  1  0.260200  0.551200  0.086100  1.0  0.0394
  H  H3017  1  0.268300  0.517800  0.079100  1.0  0.0568
  H  H3018  1  0.366600  0.639000  0.076900  1.0  0.0704
  H  H3019  1  0.336300  0.626500  0.089400  1.0  0.0565
  H  H3020  1  0.413400  0.621000  0.096200  1.0  0.0786
  H  H3021  1  0.356500  0.604200  0.011400  1.0  0.0848
  H  H3022  1  0.377800  0.625000  0.030100  1.0  0.0585
  H  H3023  1  0.405100  0.544900  0.005500  1.0  0.0592
  H  H3024  1  0.373400  0.556200  0.995300  1.0  0.0492
  H  H3025  1  0.426000  0.606800  0.044400  1.0  0.048
  H  H3026  1  0.435900  0.574900  0.033400  1.0  0.0559
  H  H3027  1  0.686000  0.088900  0.126400  1.0  0.0435
  H  H3028  1  0.689600  0.035600  0.097600  1.0  0.0673
  H  H3029  1  0.783000  0.004600  0.029500  1.0  0.058
  H  H3030  1  0.829400  0.040000  0.015100  1.0  0.0541
  H  H3031  1  0.815200  0.026600  0.088900  1.0  0.0746
  H  H3032  1  0.806800  0.059600  0.097500  1.0  0.0577
  H  H3033  1  0.760200  0.051200  0.086100  1.0  0.0394
  H  H3034  1  0.768300  0.017800  0.079100  1.0  0.0568
  H  H3035  1  0.866600  0.139000  0.076900  1.0  0.0704
  H  H3036  1  0.836300  0.126500  0.089400  1.0  0.0565
  H  H3037  1  0.913400  0.121000  0.096200  1.0  0.0788
  H  H3038  1  0.856500  0.104200  0.011400  1.0  0.0848
  H  H3039  1  0.877800  0.125000  0.030100  1.0  0.0585
  H  H3040  1  0.905100  0.044900  0.005500  1.0  0.0592
  H  H3041  1  0.873400  0.056200  0.995300  1.0  0.0492
  H  H3042  1  0.926000  0.106800  0.044400  1.0  0.048
  H  H3043  1  0.935900  0.074900  0.033400  1.0  0.0559
  H  H3044  1  0.686000  0.588900  0.626400  1.0  0.0441
  H  H3045  1  0.689600  0.535600  0.597600  1.0  0.0673
  H  H3046  1  0.783000  0.504600  0.529500  1.0  0.058
  H  H3047  1  0.829400  0.540000  0.515100  1.0  0.0541
  H  H3048  1  0.815200  0.526600  0.588900  1.0  0.0746
  H  H3049  1  0.806800  0.559600  0.597500  1.0  0.0577
  H  H3050  1  0.760200  0.551200  0.586100  1.0  0.0394
  H  H3051  1  0.768300  0.517800  0.579100  1.0  0.0568
  H  H3052  1  0.866600  0.639000  0.576900  1.0  0.0704
  H  H3053  1  0.836300  0.626500  0.589400  1.0  0.0565
  H  H3054  1  0.913400  0.621000  0.596200  1.0  0.0797
  H  H3055  1  0.856500  0.604200  0.511400  1.0  0.0848
  H  H3056  1  0.877800  0.625000  0.530100  1.0  0.0585
  H  H3057  1  0.905100  0.544900  0.505500  1.0  0.0592
  H  H3058  1  0.873400  0.556200  0.495300  1.0  0.0492
  H  H3059  1  0.926000  0.606800  0.544400  1.0  0.048
  H  H3060  1  0.935900  0.574900  0.533400  1.0  0.0559
  H  H3061  1  0.564000  0.588900  0.623600  1.0  0.0456
  H  H3062  1  0.560400  0.535600  0.652400  1.0  0.0656
  H  H3063  1  0.467000  0.504600  0.720500  1.0  0.059
  H  H3064  1  0.420600  0.540000  0.734900  1.0  0.0538
  H  H3065  1  0.434800  0.526600  0.661100  1.0  0.0756
  H  H3066  1  0.443200  0.559600  0.652500  1.0  0.0572
  H  H3067  1  0.489800  0.551200  0.663900  1.0  0.039
  H  H3068  1  0.481700  0.517800  0.670900  1.0  0.0559
  H  H3069  1  0.383400  0.639000  0.673100  1.0  0.0689
  H  H3070  1  0.413700  0.626500  0.660600  1.0  0.0585
  H  H3071  1  0.336600  0.621000  0.653800  1.0  0.0746
  H  H3072  1  0.393500  0.604200  0.738600  1.0  0.085
  H  H3073  1  0.372200  0.625000  0.719900  1.0  0.0583
  H  H3074  1  0.344900  0.544900  0.744500  1.0  0.0576
  H  H3075  1  0.376600  0.556200  0.754700  1.0  0.0477
  H  H3076  1  0.324000  0.606800  0.705600  1.0  0.048
  H  H3077  1  0.314100  0.574900  0.716600  1.0  0.0533
  H  H3078  1  0.564000  0.088900  0.123600  1.0  0.0417
  H  H3079  1  0.560400  0.035600  0.152400  1.0  0.0677
  H  H3080  1  0.467000  0.004600  0.220500  1.0  0.0578
  H  H3081  1  0.420600  0.040000  0.234900  1.0  0.0532
  H  H3082  1  0.434800  0.026600  0.161100  1.0  0.0756
  H  H3083  1  0.443200  0.059600  0.152500  1.0  0.0572
  H  H3084  1  0.489800  0.051200  0.163900  1.0  0.039
  H  H3085  1  0.481700  0.017800  0.170900  1.0  0.0559
  H  H3086  1  0.383400  0.139000  0.173100  1.0  0.0687
  H  H3087  1  0.413700  0.126500  0.160600  1.0  0.0563
  H  H3088  1  0.336600  0.121000  0.153800  1.0  0.0745
  H  H3089  1  0.393500  0.104200  0.238600  1.0  0.085
  H  H3090  1  0.372200  0.125000  0.219900  1.0  0.0583
  H  H3091  1  0.344900  0.044900  0.244500  1.0  0.0576
  H  H3092  1  0.376600  0.056200  0.254700  1.0  0.0477
  H  H3093  1  0.324000  0.106800  0.205600  1.0  0.048
  H  H3094  1  0.314100  0.074900  0.216600  1.0  0.0533
  H  H3095  1  0.064000  0.588900  0.123600  1.0  0.0454
  H  H3096  1  0.060400  0.535600  0.152400  1.0  0.0656
  H  H3097  1  0.967000  0.504600  0.220500  1.0  0.0578
  H  H3098  1  0.920600  0.540000  0.234900  1.0  0.0538
  H  H3099  1  0.934800  0.526600  0.161100  1.0  0.0756
  H  H3100  1  0.943200  0.559600  0.152500  1.0  0.0572
  H  H3101  1  0.989800  0.551200  0.163900  1.0  0.039
  H  H3102  1  0.981700  0.517800  0.170900  1.0  0.0559
  H  H3103  1  0.883400  0.639000  0.173100  1.0  0.0687
  H  H3104  1  0.913700  0.626500  0.160600  1.0  0.0585
  H  H3105  1  0.836600  0.621000  0.153800  1.0  0.0751
  H  H3106  1  0.893500  0.604200  0.238600  1.0  0.085
  H  H3107  1  0.872200  0.625000  0.219900  1.0  0.0583
  H  H3108  1  0.844900  0.544900  0.244500  1.0  0.0576
  H  H3109  1  0.876600  0.556200  0.254700  1.0  0.0477
  H  H3110  1  0.824000  0.606800  0.205600  1.0  0.048
  H  H3111  1  0.814100  0.574900  0.216600  1.0  0.0533
  H  H3112  1  0.064000  0.088900  0.623600  1.0  0.0443
  H  H3113  1  0.060400  0.035600  0.652400  1.0  0.0634
  H  H3114  1  0.967000  0.004600  0.720500  1.0  0.059
  H  H3115  1  0.920600  0.040000  0.734900  1.0  0.0538
  H  H3116  1  0.934800  0.026600  0.661100  1.0  0.0756
  H  H3117  1  0.943200  0.059600  0.652500  1.0  0.0572
  H  H3118  1  0.989800  0.051200  0.663900  1.0  0.039
  H  H3119  1  0.981700  0.017800  0.670900  1.0  0.0559
  H  H3120  1  0.883400  0.139000  0.673100  1.0  0.0689
  H  H3121  1  0.913700  0.126500  0.660600  1.0  0.0565
  H  H3122  1  0.836600  0.121000  0.653800  1.0  0.0753
  H  H3123  1  0.893500  0.104200  0.738600  1.0  0.085
  H  H3124  1  0.872200  0.125000  0.719900  1.0  0.0583
  H  H3125  1  0.844900  0.044900  0.744500  1.0  0.0576
  H  H3126  1  0.876600  0.056200  0.754700  1.0  0.0477
  H  H3127  1  0.824000  0.106800  0.705600  1.0  0.048
  H  H3128  1  0.814100  0.074900  0.716600  1.0  0.0533
  H  H3129  1  0.161100  0.123600  0.686000  1.0  0.0459
  H  H3130  1  0.214400  0.152400  0.689600  1.0  0.065
  H  H3131  1  0.245400  0.220500  0.783000  1.0  0.0509
  H  H3132  1  0.210000  0.234900  0.829400  1.0  0.057
  H  H3133  1  0.223400  0.161100  0.815200  1.0  0.0749
  H  H3134  1  0.190400  0.152500  0.806800  1.0  0.062
  H  H3135  1  0.198800  0.163900  0.760200  1.0  0.0404
  H  H3136  1  0.232200  0.170900  0.768300  1.0  0.0517
  H  H3137  1  0.111000  0.173100  0.866600  1.0  0.0674
  H  H3138  1  0.123500  0.160600  0.836300  1.0  0.0583
  H  H3139  1  0.129000  0.153800  0.913400  1.0  0.0792
  H  H3140  1  0.145800  0.238600  0.856500  1.0  0.0856
  H  H3141  1  0.125000  0.219900  0.877800  1.0  0.0575
  H  H3142  1  0.205100  0.244500  0.905100  1.0  0.053
  H  H3143  1  0.193800  0.254700  0.873400  1.0  0.0534
  H  H3144  1  0.143200  0.205600  0.926000  1.0  0.0519
  H  H3145  1  0.175100  0.216600  0.935900  1.0  0.0563
  H  H3146  1  0.161100  0.623600  0.186000  1.0  0.0459
  H  H3147  1  0.214400  0.652400  0.189600  1.0  0.065
  H  H3148  1  0.245400  0.720500  0.283000  1.0  0.0509
  H  H3149  1  0.210000  0.734900  0.329400  1.0  0.057
  H  H3150  1  0.223400  0.661100  0.315200  1.0  0.0749
  H  H3151  1  0.190400  0.652500  0.306800  1.0  0.062
  H  H3152  1  0.198800  0.663900  0.260200  1.0  0.0404
  H  H3153  1  0.232200  0.670900  0.268300  1.0  0.0517
  H  H3154  1  0.111000  0.673100  0.366600  1.0  0.0678
  H  H3155  1  0.123500  0.660600  0.336300  1.0  0.0585
  H  H3156  1  0.129000  0.653800  0.413400  1.0  0.0795
  H  H3157  1  0.145800  0.738600  0.356500  1.0  0.0856
  H  H3158  1  0.125000  0.719900  0.377800  1.0  0.0575
  H  H3159  1  0.205100  0.744500  0.405100  1.0  0.053
  H  H3160  1  0.193800  0.754700  0.373400  1.0  0.0534
  H  H3161  1  0.143200  0.705600  0.426000  1.0  0.0519
  H  H3162  1  0.175100  0.716600  0.435900  1.0  0.0563
  H  H3163  1  0.661100  0.123600  0.186000  1.0  0.0459
  H  H3164  1  0.714400  0.152400  0.189600  1.0  0.0646
  H  H3165  1  0.745400  0.220500  0.283000  1.0  0.0491
  H  H3166  1  0.710000  0.234900  0.329400  1.0  0.0567
  H  H3167  1  0.723400  0.161100  0.315200  1.0  0.0749
  H  H3168  1  0.690400  0.152500  0.306800  1.0  0.062
  H  H3169  1  0.698800  0.163900  0.260200  1.0  0.0404
  H  H3170  1  0.732200  0.170900  0.268300  1.0  0.0517
  H  H3171  1  0.611000  0.173100  0.366600  1.0  0.0674
  H  H3172  1  0.623500  0.160600  0.336300  1.0  0.0606
  H  H3173  1  0.629000  0.153800  0.413400  1.0  0.0782
  H  H3174  1  0.645800  0.238600  0.356500  1.0  0.0856
  H  H3175  1  0.625000  0.219900  0.377800  1.0  0.0575
  H  H3176  1  0.705100  0.244500  0.405100  1.0  0.053
  H  H3177  1  0.693800  0.254700  0.373400  1.0  0.0534
  H  H3178  1  0.643200  0.205600  0.426000  1.0  0.0519
  H  H3179  1  0.675100  0.216600  0.435900  1.0  0.0563
  H  H3180  1  0.661100  0.623600  0.686000  1.0  0.0459
  H  H3181  1  0.714400  0.652400  0.689600  1.0  0.0646
  H  H3182  1  0.745400  0.720500  0.783000  1.0  0.0509
  H  H3183  1  0.710000  0.734900  0.829400  1.0  0.057
  H  H3184  1  0.723400  0.661100  0.815200  1.0  0.0749
  H  H3185  1  0.690400  0.652500  0.806800  1.0  0.062
  H  H3186  1  0.698800  0.663900  0.760200  1.0  0.0404
  H  H3187  1  0.732200  0.670900  0.768300  1.0  0.0517
  H  H3188  1  0.611000  0.673100  0.866600  1.0  0.0678
  H  H3189  1  0.623500  0.660600  0.836300  1.0  0.0583
  H  H3190  1  0.629000  0.653800  0.913400  1.0  0.0788
  H  H3191  1  0.645800  0.738600  0.856500  1.0  0.0856
  H  H3192  1  0.625000  0.719900  0.877800  1.0  0.0575
  H  H3193  1  0.705100  0.744500  0.905100  1.0  0.053
  H  H3194  1  0.693800  0.754700  0.873400  1.0  0.0534
  H  H3195  1  0.643200  0.705600  0.926000  1.0  0.0519
  H  H3196  1  0.675100  0.716600  0.935900  1.0  0.0563
  H  H3197  1  0.661100  0.126400  0.064000  1.0  0.0469
  H  H3198  1  0.714400  0.097600  0.060400  1.0  0.0647
  H  H3199  1  0.745400  0.029500  0.967000  1.0  0.0482
  H  H3200  1  0.710000  0.015100  0.920600  1.0  0.0555
  H  H3201  1  0.723400  0.088900  0.934800  1.0  0.0735
  H  H3202  1  0.690400  0.097500  0.943200  1.0  0.0614
  H  H3203  1  0.698800  0.086100  0.989800  1.0  0.0409
  H  H3204  1  0.732200  0.079100  0.981700  1.0  0.0525
  H  H3205  1  0.611000  0.076900  0.883400  1.0  0.0691
  H  H3206  1  0.623500  0.089400  0.913700  1.0  0.0636
  H  H3207  1  0.629000  0.096200  0.836600  1.0  0.0776
  H  H3208  1  0.645800  0.011400  0.893500  1.0  0.0829
  H  H3209  1  0.625000  0.030100  0.872200  1.0  0.0582
  H  H3210  1  0.705100  0.005500  0.844900  1.0  0.0537
  H  H3211  1  0.693800  0.995300  0.876600  1.0  0.0543
  H  H3212  1  0.643200  0.044400  0.824000  1.0  0.051
  H  H3213  1  0.675100  0.033400  0.814100  1.0  0.0573
  H  H3214  1  0.661100  0.626400  0.564000  1.0  0.0463
  H  H3215  1  0.714400  0.597600  0.560400  1.0  0.0649
  H  H3216  1  0.745400  0.529500  0.467000  1.0  0.0482
  H  H3217  1  0.710000  0.515100  0.420600  1.0  0.0555
  H  H3218  1  0.723400  0.588900  0.434800  1.0  0.0735
  H  H3219  1  0.690400  0.597500  0.443200  1.0  0.0614
  H  H3220  1  0.698800  0.586100  0.489800  1.0  0.0409
  H  H3221  1  0.732200  0.579100  0.481700  1.0  0.0525
  H  H3222  1  0.611000  0.576900  0.383400  1.0  0.0694
  H  H3223  1  0.623500  0.589400  0.413700  1.0  0.0636
  H  H3224  1  0.629000  0.596200  0.336600  1.0  0.0788
  H  H3225  1  0.645800  0.511400  0.393500  1.0  0.0829
  H  H3226  1  0.625000  0.530100  0.372200  1.0  0.0582
  H  H3227  1  0.705100  0.505500  0.344900  1.0  0.0537
  H  H3228  1  0.693800  0.495300  0.376600  1.0  0.0543
  H  H3229  1  0.643200  0.544400  0.324000  1.0  0.051
  H  H3230  1  0.675100  0.533400  0.314100  1.0  0.0573
  H  H3231  1  0.161100  0.126400  0.564000  1.0  0.0467
  H  H3232  1  0.214400  0.097600  0.560400  1.0  0.0647
  H  H3233  1  0.245400  0.029500  0.467000  1.0  0.0499
  H  H3234  1  0.210000  0.015100  0.420600  1.0  0.056
  H  H3235  1  0.223400  0.088900  0.434800  1.0  0.0735
  H  H3236  1  0.190400  0.097500  0.443200  1.0  0.0614
  H  H3237  1  0.198800  0.086100  0.489800  1.0  0.0409
  H  H3238  1  0.232200  0.079100  0.481700  1.0  0.0525
  H  H3239  1  0.111000  0.076900  0.383400  1.0  0.0691
  H  H3240  1  0.123500  0.089400  0.413700  1.0  0.0636
  H  H3241  1  0.129000  0.096200  0.336600  1.0  0.0778
  H  H3242  1  0.145800  0.011400  0.393500  1.0  0.0829
  H  H3243  1  0.125000  0.030100  0.372200  1.0  0.0582
  H  H3244  1  0.205100  0.005500  0.344900  1.0  0.0537
  H  H3245  1  0.193800  0.995300  0.376600  1.0  0.0543
  H  H3246  1  0.143200  0.044400  0.324000  1.0  0.051
  H  H3247  1  0.175100  0.033400  0.314100  1.0  0.0573
  H  H3248  1  0.161100  0.626400  0.064000  1.0  0.0467
  H  H3249  1  0.214400  0.597600  0.060400  1.0  0.0647
  H  H3250  1  0.245400  0.529500  0.967000  1.0  0.0482
  H  H3251  1  0.210000  0.515100  0.920600  1.0  0.056
  H  H3252  1  0.223400  0.588900  0.934800  1.0  0.0735
  H  H3253  1  0.190400  0.597500  0.943200  1.0  0.0614
  H  H3254  1  0.198800  0.586100  0.989800  1.0  0.0409
  H  H3255  1  0.232200  0.579100  0.981700  1.0  0.0525
  H  H3256  1  0.111000  0.576900  0.883400  1.0  0.0694
  H  H3257  1  0.123500  0.589400  0.913700  1.0  0.0623
  H  H3258  1  0.129000  0.596200  0.836600  1.0  0.0788
  H  H3259  1  0.145800  0.511400  0.893500  1.0  0.0829
  H  H3260  1  0.125000  0.530100  0.872200  1.0  0.0582
  H  H3261  1  0.205100  0.505500  0.844900  1.0  0.0537
  H  H3262  1  0.193800  0.495300  0.876600  1.0  0.0543
  H  H3263  1  0.143200  0.544400  0.824000  1.0  0.051
  H  H3264  1  0.175100  0.533400  0.814100  1.0  0.0573
  H  H3265  1  0.588900  0.623600  0.564000  1.0  0.0454
  H  H3266  1  0.535600  0.652400  0.560400  1.0  0.0658
  H  H3267  1  0.504600  0.720500  0.467000  1.0  0.0496
  H  H3268  1  0.540000  0.734900  0.420600  1.0  0.0563
  H  H3269  1  0.526600  0.661100  0.434800  1.0  0.0736
  H  H3270  1  0.559600  0.652500  0.443200  1.0  0.0617
  H  H3271  1  0.551200  0.663900  0.489800  1.0  0.0418
  H  H3272  1  0.517800  0.670900  0.481700  1.0  0.0534
  H  H3273  1  0.639000  0.673100  0.383400  1.0  0.0684
  H  H3274  1  0.626500  0.660600  0.413700  1.0  0.0613
  H  H3275  1  0.621000  0.653800  0.336600  1.0  0.0801
  H  H3276  1  0.604200  0.738600  0.393500  1.0  0.0814
  H  H3277  1  0.625000  0.719900  0.372200  1.0  0.0587
  H  H3278  1  0.544900  0.744500  0.344900  1.0  0.0516
  H  H3279  1  0.556200  0.754700  0.376600  1.0  0.0545
  H  H3280  1  0.606800  0.705600  0.324000  1.0  0.0508
  H  H3281  1  0.574900  0.716600  0.314100  1.0  0.0549
  H  H3282  1  0.588900  0.123600  0.064000  1.0  0.0451
  H  H3283  1  0.535600  0.152400  0.060400  1.0  0.0666
  H  H3284  1  0.504600  0.220500  0.967000  1.0  0.0481
  H  H3285  1  0.540000  0.234900  0.920600  1.0  0.0559
  H  H3286  1  0.526600  0.161100  0.934800  1.0  0.0736
  H  H3287  1  0.559600  0.152500  0.943200  1.0  0.0617
  H  H3288  1  0.551200  0.163900  0.989800  1.0  0.0418
  H  H3289  1  0.517800  0.170900  0.981700  1.0  0.0534
  H  H3290  1  0.639000  0.173100  0.883400  1.0  0.0682
  H  H3291  1  0.626500  0.160600  0.913700  1.0  0.0613
  H  H3292  1  0.621000  0.153800  0.836600  1.0  0.0796
  H  H3293  1  0.604200  0.238600  0.893500  1.0  0.0814
  H  H3294  1  0.625000  0.219900  0.872200  1.0  0.0587
  H  H3295  1  0.544900  0.244500  0.844900  1.0  0.0516
  H  H3296  1  0.556200  0.254700  0.876600  1.0  0.0545
  H  H3297  1  0.606800  0.205600  0.824000  1.0  0.0508
  H  H3298  1  0.574900  0.216600  0.814100  1.0  0.0549
  H  H3299  1  0.088900  0.623600  0.064000  1.0  0.0451
  H  H3300  1  0.035600  0.652400  0.060400  1.0  0.0637
  H  H3301  1  0.004600  0.720500  0.967000  1.0  0.0496
  H  H3302  1  0.040000  0.734900  0.920600  1.0  0.0563
  H  H3303  1  0.026600  0.661100  0.934800  1.0  0.0736
  H  H3304  1  0.059600  0.652500  0.943200  1.0  0.0617
  H  H3305  1  0.051200  0.663900  0.989800  1.0  0.0418
  H  H3306  1  0.017800  0.670900  0.981700  1.0  0.0534
  H  H3307  1  0.139000  0.673100  0.883400  1.0  0.0684
  H  H3308  1  0.126500  0.660600  0.913700  1.0  0.0592
  H  H3309  1  0.121000  0.653800  0.836600  1.0  0.0801
  H  H3310  1  0.104200  0.738600  0.893500  1.0  0.0814
  H  H3311  1  0.125000  0.719900  0.872200  1.0  0.0587
  H  H3312  1  0.044900  0.744500  0.844900  1.0  0.0516
  H  H3313  1  0.056200  0.754700  0.876600  1.0  0.0545
  H  H3314  1  0.106800  0.705600  0.824000  1.0  0.0508
  H  H3315  1  0.074900  0.716600  0.814100  1.0  0.0549
  H  H3316  1  0.088900  0.123600  0.564000  1.0  0.0422
  H  H3317  1  0.035600  0.152400  0.560400  1.0  0.0685
  H  H3318  1  0.004600  0.220500  0.467000  1.0  0.0481
  H  H3319  1  0.040000  0.234900  0.420600  1.0  0.0559
  H  H3320  1  0.026600  0.161100  0.434800  1.0  0.0736
  H  H3321  1  0.059600  0.152500  0.443200  1.0  0.0617
  H  H3322  1  0.051200  0.163900  0.489800  1.0  0.0418
  H  H3323  1  0.017800  0.170900  0.481700  1.0  0.0534
  H  H3324  1  0.139000  0.173100  0.383400  1.0  0.0682
  H  H3325  1  0.126500  0.160600  0.413700  1.0  0.0589
  H  H3326  1  0.121000  0.153800  0.336600  1.0  0.0806
  H  H3327  1  0.104200  0.238600  0.393500  1.0  0.0814
  H  H3328  1  0.125000  0.219900  0.372200  1.0  0.0587
  H  H3329  1  0.044900  0.244500  0.344900  1.0  0.0516
  H  H3330  1  0.056200  0.254700  0.376600  1.0  0.0545
  H  H3331  1  0.106800  0.205600  0.324000  1.0  0.0508
  H  H3332  1  0.074900  0.216600  0.314100  1.0  0.0549
  H  H3333  1  0.088900  0.626400  0.186000  1.0  0.0447
  H  H3334  1  0.035600  0.597600  0.189600  1.0  0.0656
  H  H3335  1  0.004600  0.529500  0.283000  1.0  0.05
  H  H3336  1  0.040000  0.515100  0.329400  1.0  0.0568
  H  H3337  1  0.026600  0.588900  0.315200  1.0  0.0745
  H  H3338  1  0.059600  0.597500  0.306800  1.0  0.0608
  H  H3339  1  0.051200  0.586100  0.260200  1.0  0.0417
  H  H3340  1  0.017800  0.579100  0.268300  1.0  0.0534
  H  H3341  1  0.139000  0.576900  0.366600  1.0  0.0712
  H  H3342  1  0.126500  0.589400  0.336300  1.0  0.0605
  H  H3343  1  0.121000  0.596200  0.413400  1.0  0.0813
  H  H3344  1  0.104200  0.511400  0.356500  1.0  0.0845
  H  H3345  1  0.125000  0.530100  0.377800  1.0  0.0583
  H  H3346  1  0.044900  0.505500  0.405100  1.0  0.0523
  H  H3347  1  0.056200  0.495300  0.373400  1.0  0.0526
  H  H3348  1  0.106800  0.544400  0.426000  1.0  0.0497
  H  H3349  1  0.074900  0.533400  0.435900  1.0  0.0543
  H  H3350  1  0.088900  0.126400  0.686000  1.0  0.0452
  H  H3351  1  0.035600  0.097600  0.689600  1.0  0.0651
  H  H3352  1  0.004600  0.029500  0.783000  1.0  0.0516
  H  H3353  1  0.040000  0.015100  0.829400  1.0  0.0568
  H  H3354  1  0.026600  0.088900  0.815200  1.0  0.0745
  H  H3355  1  0.059600  0.097500  0.806800  1.0  0.0608
  H  H3356  1  0.051200  0.086100  0.760200  1.0  0.0417
  H  H3357  1  0.017800  0.079100  0.768300  1.0  0.0534
  H  H3358  1  0.139000  0.076900  0.866600  1.0  0.0711
  H  H3359  1  0.126500  0.089400  0.836300  1.0  0.0619
  H  H3360  1  0.121000  0.096200  0.913400  1.0  0.0813
  H  H3361  1  0.104200  0.011400  0.856500  1.0  0.0845
  H  H3362  1  0.125000  0.030100  0.877800  1.0  0.0583
  H  H3363  1  0.044900  0.005500  0.905100  1.0  0.0523
  H  H3364  1  0.056200  0.995300  0.873400  1.0  0.0526
  H  H3365  1  0.106800  0.044400  0.926000  1.0  0.0497
  H  H3366  1  0.074900  0.033400  0.935900  1.0  0.0543
  H  H3367  1  0.588900  0.626400  0.686000  1.0  0.0447
  H  H3368  1  0.535600  0.597600  0.689600  1.0  0.0656
  H  H3369  1  0.504600  0.529500  0.783000  1.0  0.05
  H  H3370  1  0.540000  0.515100  0.829400  1.0  0.0572
  H  H3371  1  0.526600  0.588900  0.815200  1.0  0.0745
  H  H3372  1  0.559600  0.597500  0.806800  1.0  0.0608
  H  H3373  1  0.551200  0.586100  0.760200  1.0  0.0417
  H  H3374  1  0.517800  0.579100  0.768300  1.0  0.0534
  H  H3375  1  0.639000  0.576900  0.866600  1.0  0.0711
  H  H3376  1  0.626500  0.589400  0.836300  1.0  0.0619
  H  H3377  1  0.621000  0.596200  0.913400  1.0  0.0823
  H  H3378  1  0.604200  0.511400  0.856500  1.0  0.0845
  H  H3379  1  0.625000  0.530100  0.877800  1.0  0.0583
  H  H3380  1  0.544900  0.505500  0.905100  1.0  0.0523
  H  H3381  1  0.556200  0.495300  0.873400  1.0  0.0526
  H  H3382  1  0.606800  0.544400  0.926000  1.0  0.0497
  H  H3383  1  0.574900  0.533400  0.935900  1.0  0.0543
  H  H3384  1  0.588900  0.126400  0.186000  1.0  0.045
  H  H3385  1  0.535600  0.097600  0.189600  1.0  0.0651
  H  H3386  1  0.504600  0.029500  0.283000  1.0  0.05
  H  H3387  1  0.540000  0.015100  0.329400  1.0  0.0572
  H  H3388  1  0.526600  0.088900  0.315200  1.0  0.0745
  H  H3389  1  0.559600  0.097500  0.306800  1.0  0.0608
  H  H3390  1  0.551200  0.086100  0.260200  1.0  0.0417
  H  H3391  1  0.517800  0.079100  0.268300  1.0  0.0534
  H  H3392  1  0.639000  0.076900  0.366600  1.0  0.0711
  H  H3393  1  0.626500  0.089400  0.336300  1.0  0.0619
  H  H3394  1  0.621000  0.096200  0.413400  1.0  0.0811
  H  H3395  1  0.604200  0.011400  0.356500  1.0  0.0845
  H  H3396  1  0.625000  0.030100  0.377800  1.0  0.0583
  H  H3397  1  0.544900  0.005500  0.405100  1.0  0.0523
  H  H3398  1  0.556200  0.995300  0.373400  1.0  0.0526
  H  H3399  1  0.606800  0.044400  0.426000  1.0  0.0497
  H  H3400  1  0.574900  0.033400  0.435900  1.0  0.0543
  C  C3401  1  0.305700  0.581700  0.044800  1.0  -0.0545
  C  C3402  1  0.273000  0.574200  0.038400  1.0  -0.0506
  C  C3403  1  0.356800  0.594700  0.131400  1.0  -0.03
  C  C3404  1  0.377200  0.514600  0.109900  1.0  -0.0411
  C  C3405  1  0.393800  0.499500  0.062400  1.0  -0.0843
  C  C3406  1  0.424500  0.528000  0.092600  1.0  -0.0432
  C  C3407  1  0.305700  0.081700  0.544800  1.0  -0.0545
  C  C3408  1  0.273000  0.074200  0.538400  1.0  -0.0506
  C  C3409  1  0.356800  0.094700  0.631400  1.0  -0.03
  C  C3410  1  0.377200  0.014600  0.609900  1.0  -0.0411
  C  C3411  1  0.393800  0.999500  0.562400  1.0  -0.0843
  C  C3412  1  0.424500  0.028000  0.592600  1.0  -0.0432
  C  C3413  1  0.805700  0.581700  0.544800  1.0  -0.0545
  C  C3414  1  0.773000  0.574200  0.538400  1.0  -0.0506
  C  C3415  1  0.856800  0.594700  0.631400  1.0  -0.03
  C  C3416  1  0.877200  0.514600  0.609900  1.0  -0.0411
  C  C3417  1  0.893800  0.499500  0.562400  1.0  -0.0843
  C  C3418  1  0.924500  0.528000  0.592600  1.0  -0.0432
  C  C3419  1  0.805700  0.081700  0.044800  1.0  -0.0545
  C  C3420  1  0.773000  0.074200  0.038400  1.0  -0.0506
  C  C3421  1  0.856800  0.094700  0.131400  1.0  -0.03
  C  C3422  1  0.877200  0.014600  0.109900  1.0  -0.0411
  C  C3423  1  0.893800  0.999500  0.062400  1.0  -0.0843
  C  C3424  1  0.924500  0.028000  0.092600  1.0  -0.0432
  C  C3425  1  0.444300  0.668300  0.544800  1.0  -0.0541
  C  C3426  1  0.477000  0.675800  0.538400  1.0  -0.0495
  C  C3427  1  0.393200  0.655300  0.631400  1.0  -0.0327
  C  C3428  1  0.372800  0.735400  0.609900  1.0  -0.041
  C  C3429  1  0.356200  0.750500  0.562400  1.0  -0.0845
  C  C3430  1  0.325500  0.722000  0.592600  1.0  -0.0417
  C  C3431  1  0.444300  0.168300  0.044800  1.0  -0.0541
  C  C3432  1  0.477000  0.175800  0.038400  1.0  -0.0495
  C  C3433  1  0.393200  0.155300  0.131400  1.0  -0.0327
  C  C3434  1  0.372800  0.235400  0.109900  1.0  -0.041
  C  C3435  1  0.356200  0.250500  0.062400  1.0  -0.0845
  C  C3436  1  0.325500  0.222000  0.092600  1.0  -0.0417
  C  C3437  1  0.944300  0.668300  0.044800  1.0  -0.0541
  C  C3438  1  0.977000  0.675800  0.038400  1.0  -0.0495
  C  C3439  1  0.893200  0.655300  0.131400  1.0  -0.0327
  C  C3440  1  0.872800  0.735400  0.109900  1.0  -0.041
  C  C3441  1  0.856200  0.750500  0.062400  1.0  -0.0845
  C  C3442  1  0.825500  0.722000  0.092600  1.0  -0.0417
  C  C3443  1  0.944300  0.168300  0.544800  1.0  -0.0541
  C  C3444  1  0.977000  0.175800  0.538400  1.0  -0.0495
  C  C3445  1  0.893200  0.155300  0.631400  1.0  -0.0327
  C  C3446  1  0.872800  0.235400  0.609900  1.0  -0.041
  C  C3447  1  0.856200  0.250500  0.562400  1.0  -0.0845
  C  C3448  1  0.825500  0.222000  0.592600  1.0  -0.0417
  C  C3449  1  0.944300  0.081700  0.705200  1.0  -0.0537
  C  C3450  1  0.977000  0.074200  0.711600  1.0  -0.0494
  C  C3451  1  0.893200  0.094700  0.618600  1.0  -0.0311
  C  C3452  1  0.872800  0.014600  0.640100  1.0  -0.0408
  C  C3453  1  0.856200  0.999500  0.687600  1.0  -0.0841
  C  C3454  1  0.825500  0.028000  0.657400  1.0  -0.0431
  C  C3455  1  0.944300  0.581700  0.205200  1.0  -0.0537
  C  C3456  1  0.977000  0.574200  0.211600  1.0  -0.0494
  C  C3457  1  0.893200  0.594700  0.118600  1.0  -0.0311
  C  C3458  1  0.872800  0.514600  0.140100  1.0  -0.0408
  C  C3459  1  0.856200  0.499500  0.187600  1.0  -0.0841
  C  C3460  1  0.825500  0.528000  0.157400  1.0  -0.0431
  C  C3461  1  0.444300  0.081700  0.205200  1.0  -0.0537
  C  C3462  1  0.477000  0.074200  0.211600  1.0  -0.0494
  C  C3463  1  0.393200  0.094700  0.118600  1.0  -0.0311
  C  C3464  1  0.372800  0.014600  0.140100  1.0  -0.0408
  C  C3465  1  0.356200  0.999500  0.187600  1.0  -0.0841
  C  C3466  1  0.325500  0.028000  0.157400  1.0  -0.0431
  C  C3467  1  0.444300  0.581700  0.705200  1.0  -0.0537
  C  C3468  1  0.477000  0.574200  0.711600  1.0  -0.0494
  C  C3469  1  0.393200  0.594700  0.618600  1.0  -0.0311
  C  C3470  1  0.372800  0.514600  0.640100  1.0  -0.0408
  C  C3471  1  0.356200  0.499500  0.687600  1.0  -0.0841
  C  C3472  1  0.325500  0.528000  0.657400  1.0  -0.0431
  C  C3473  1  0.805700  0.168300  0.205200  1.0  -0.0536
  C  C3474  1  0.773000  0.175800  0.211600  1.0  -0.0488
  C  C3475  1  0.856800  0.155300  0.118600  1.0  -0.0286
  C  C3476  1  0.877200  0.235400  0.140100  1.0  -0.0399
  C  C3477  1  0.893800  0.250500  0.187600  1.0  -0.0866
  C  C3478  1  0.924500  0.222000  0.157400  1.0  -0.0443
  C  C3479  1  0.805700  0.668300  0.705200  1.0  -0.0536
  C  C3480  1  0.773000  0.675800  0.711600  1.0  -0.0488
  C  C3481  1  0.856800  0.655300  0.618600  1.0  -0.0286
  C  C3482  1  0.877200  0.735400  0.640100  1.0  -0.0399
  C  C3483  1  0.893800  0.750500  0.687600  1.0  -0.0866
  C  C3484  1  0.924500  0.722000  0.657400  1.0  -0.0443
  C  C3485  1  0.305700  0.168300  0.705200  1.0  -0.0536
  C  C3486  1  0.273000  0.175800  0.711600  1.0  -0.0488
  C  C3487  1  0.356800  0.155300  0.618600  1.0  -0.0286
  C  C3488  1  0.377200  0.235400  0.640100  1.0  -0.0399
  C  C3489  1  0.393800  0.250500  0.687600  1.0  -0.0866
  C  C3490  1  0.424500  0.222000  0.657400  1.0  -0.0443
  C  C3491  1  0.305700  0.668300  0.205200  1.0  -0.0536
  C  C3492  1  0.273000  0.675800  0.211600  1.0  -0.0488
  C  C3493  1  0.356800  0.655300  0.118600  1.0  -0.0286
  C  C3494  1  0.377200  0.735400  0.140100  1.0  -0.0399
  C  C3495  1  0.393800  0.750500  0.187600  1.0  -0.0866
  C  C3496  1  0.424500  0.722000  0.157400  1.0  -0.0443
  C  C3497  1  0.044800  0.305700  0.581700  1.0  -0.0527
  C  C3498  1  0.038400  0.273000  0.574200  1.0  -0.0503
  C  C3499  1  0.131400  0.356800  0.594700  1.0  -0.0314
  C  C3500  1  0.109900  0.377200  0.514600  1.0  -0.0429
  C  C3501  1  0.062400  0.393800  0.499500  1.0  -0.0819
  C  C3502  1  0.092600  0.424500  0.528000  1.0  -0.044
  C  C3503  1  0.044800  0.805700  0.081700  1.0  -0.0527
  C  C3504  1  0.038400  0.773000  0.074200  1.0  -0.0503
  C  C3505  1  0.131400  0.856800  0.094700  1.0  -0.0319
  C  C3506  1  0.109900  0.877200  0.014600  1.0  -0.0429
  C  C3507  1  0.062400  0.893800  0.999500  1.0  -0.0819
  C  C3508  1  0.092600  0.924500  0.028000  1.0  -0.044
  C  C3509  1  0.544800  0.305700  0.081700  1.0  -0.0527
  C  C3510  1  0.538400  0.273000  0.074200  1.0  -0.0503
  C  C3511  1  0.631400  0.356800  0.094700  1.0  -0.0319
  C  C3512  1  0.609900  0.377200  0.014600  1.0  -0.0429
  C  C3513  1  0.562400  0.393800  0.999500  1.0  -0.0819
  C  C3514  1  0.592600  0.424500  0.028000  1.0  -0.044
  C  C3515  1  0.544800  0.805700  0.581700  1.0  -0.0527
  C  C3516  1  0.538400  0.773000  0.574200  1.0  -0.0503
  C  C3517  1  0.631400  0.856800  0.594700  1.0  -0.0314
  C  C3518  1  0.609900  0.877200  0.514600  1.0  -0.0429
  C  C3519  1  0.562400  0.893800  0.499500  1.0  -0.0819
  C  C3520  1  0.592600  0.924500  0.528000  1.0  -0.044
  C  C3521  1  0.544800  0.444300  0.668300  1.0  -0.0524
  C  C3522  1  0.538400  0.477000  0.675800  1.0  -0.0484
  C  C3523  1  0.631400  0.393200  0.655300  1.0  -0.0307
  C  C3524  1  0.609900  0.372800  0.735400  1.0  -0.0427
  C  C3525  1  0.562400  0.356200  0.750500  1.0  -0.084
  C  C3526  1  0.592600  0.325500  0.722000  1.0  -0.0417
  C  C3527  1  0.544800  0.944300  0.168300  1.0  -0.0524
  C  C3528  1  0.538400  0.977000  0.175800  1.0  -0.0484
  C  C3529  1  0.631400  0.893200  0.155300  1.0  -0.0307
  C  C3530  1  0.609900  0.872800  0.235400  1.0  -0.0427
  C  C3531  1  0.562400  0.856200  0.250500  1.0  -0.084
  C  C3532  1  0.592600  0.825500  0.222000  1.0  -0.0417
  C  C3533  1  0.044800  0.444300  0.168300  1.0  -0.0524
  C  C3534  1  0.038400  0.477000  0.175800  1.0  -0.0484
  C  C3535  1  0.131400  0.393200  0.155300  1.0  -0.0307
  C  C3536  1  0.109900  0.372800  0.235400  1.0  -0.0427
  C  C3537  1  0.062400  0.356200  0.250500  1.0  -0.084
  C  C3538  1  0.092600  0.325500  0.222000  1.0  -0.0417
  C  C3539  1  0.044800  0.944300  0.668300  1.0  -0.0524
  C  C3540  1  0.038400  0.977000  0.675800  1.0  -0.0484
  C  C3541  1  0.131400  0.893200  0.655300  1.0  -0.0307
  C  C3542  1  0.109900  0.872800  0.735400  1.0  -0.0427
  C  C3543  1  0.062400  0.856200  0.750500  1.0  -0.084
  C  C3544  1  0.092600  0.825500  0.722000  1.0  -0.0417
  C  C3545  1  0.705200  0.944300  0.081700  1.0  -0.0512
  C  C3546  1  0.711600  0.977000  0.074200  1.0  -0.051
  C  C3547  1  0.618600  0.893200  0.094700  1.0  -0.0283
  C  C3548  1  0.640100  0.872800  0.014600  1.0  -0.0427
  C  C3549  1  0.687600  0.856200  0.999500  1.0  -0.0847
  C  C3550  1  0.657400  0.825500  0.028000  1.0  -0.0422
  C  C3551  1  0.705200  0.444300  0.581700  1.0  -0.0512
  C  C3552  1  0.711600  0.477000  0.574200  1.0  -0.051
  C  C3553  1  0.618600  0.393200  0.594700  1.0  -0.0277
  C  C3554  1  0.640100  0.372800  0.514600  1.0  -0.0427
  C  C3555  1  0.687600  0.356200  0.499500  1.0  -0.0847
  C  C3556  1  0.657400  0.325500  0.528000  1.0  -0.0422
  C  C3557  1  0.205200  0.944300  0.581700  1.0  -0.0512
  C  C3558  1  0.211600  0.977000  0.574200  1.0  -0.051
  C  C3559  1  0.118600  0.893200  0.594700  1.0  -0.0277
  C  C3560  1  0.140100  0.872800  0.514600  1.0  -0.0427
  C  C3561  1  0.187600  0.856200  0.499500  1.0  -0.0847
  C  C3562  1  0.157400  0.825500  0.528000  1.0  -0.0422
  C  C3563  1  0.205200  0.444300  0.081700  1.0  -0.0512
  C  C3564  1  0.211600  0.477000  0.074200  1.0  -0.051
  C  C3565  1  0.118600  0.393200  0.094700  1.0  -0.0283
  C  C3566  1  0.140100  0.372800  0.014600  1.0  -0.0427
  C  C3567  1  0.187600  0.356200  0.999500  1.0  -0.0847
  C  C3568  1  0.157400  0.325500  0.028000  1.0  -0.0422
  C  C3569  1  0.205200  0.805700  0.168300  1.0  -0.0532
  C  C3570  1  0.211600  0.773000  0.175800  1.0  -0.0499
  C  C3571  1  0.118600  0.856800  0.155300  1.0  -0.0285
  C  C3572  1  0.140100  0.877200  0.235400  1.0  -0.0424
  C  C3573  1  0.187600  0.893800  0.250500  1.0  -0.0852
  C  C3574  1  0.157400  0.924500  0.222000  1.0  -0.0429
  C  C3575  1  0.205200  0.305700  0.668300  1.0  -0.0532
  C  C3576  1  0.211600  0.273000  0.675800  1.0  -0.0499
  C  C3577  1  0.118600  0.356800  0.655300  1.0  -0.0285
  C  C3578  1  0.140100  0.377200  0.735400  1.0  -0.0424
  C  C3579  1  0.187600  0.393800  0.750500  1.0  -0.0852
  C  C3580  1  0.157400  0.424500  0.722000  1.0  -0.0429
  C  C3581  1  0.705200  0.805700  0.668300  1.0  -0.0532
  C  C3582  1  0.711600  0.773000  0.675800  1.0  -0.0499
  C  C3583  1  0.618600  0.856800  0.655300  1.0  -0.0285
  C  C3584  1  0.640100  0.877200  0.735400  1.0  -0.0424
  C  C3585  1  0.687600  0.893800  0.750500  1.0  -0.0852
  C  C3586  1  0.657400  0.924500  0.722000  1.0  -0.0429
  C  C3587  1  0.705200  0.305700  0.168300  1.0  -0.0532
  C  C3588  1  0.711600  0.273000  0.175800  1.0  -0.0499
  C  C3589  1  0.618600  0.356800  0.155300  1.0  -0.0285
  C  C3590  1  0.640100  0.377200  0.235400  1.0  -0.0424
  C  C3591  1  0.687600  0.393800  0.250500  1.0  -0.0852
  C  C3592  1  0.657400  0.424500  0.222000  1.0  -0.0429
  C  C3593  1  0.581700  0.044800  0.305700  1.0  -0.0554
  C  C3594  1  0.574200  0.038400  0.273000  1.0  -0.0543
  C  C3595  1  0.594700  0.131400  0.356800  1.0  -0.0283
  C  C3596  1  0.514600  0.109900  0.377200  1.0  -0.0407
  C  C3597  1  0.499500  0.062400  0.393800  1.0  -0.0849
  C  C3598  1  0.528000  0.092600  0.424500  1.0  -0.04
  C  C3599  1  0.581700  0.544800  0.805700  1.0  -0.0554
  C  C3600  1  0.574200  0.538400  0.773000  1.0  -0.0543
  C  C3601  1  0.594700  0.631400  0.856800  1.0  -0.0283
  C  C3602  1  0.514600  0.609900  0.877200  1.0  -0.0407
  C  C3603  1  0.499500  0.562400  0.893800  1.0  -0.0849
  C  C3604  1  0.528000  0.592600  0.924500  1.0  -0.04
  C  C3605  1  0.081700  0.044800  0.805700  1.0  -0.0554
  C  C3606  1  0.074200  0.038400  0.773000  1.0  -0.0543
  C  C3607  1  0.094700  0.131400  0.856800  1.0  -0.0283
  C  C3608  1  0.014600  0.109900  0.877200  1.0  -0.0407
  C  C3609  1  0.999500  0.062400  0.893800  1.0  -0.0849
  C  C3610  1  0.028000  0.092600  0.924500  1.0  -0.04
  C  C3611  1  0.081700  0.544800  0.305700  1.0  -0.0554
  C  C3612  1  0.074200  0.538400  0.273000  1.0  -0.0543
  C  C3613  1  0.094700  0.631400  0.356800  1.0  -0.0283
  C  C3614  1  0.014600  0.609900  0.377200  1.0  -0.0407
  C  C3615  1  0.999500  0.562400  0.393800  1.0  -0.0849
  C  C3616  1  0.028000  0.592600  0.424500  1.0  -0.04
  C  C3617  1  0.668300  0.544800  0.444300  1.0  -0.055
  C  C3618  1  0.675800  0.538400  0.477000  1.0  -0.0529
  C  C3619  1  0.655300  0.631400  0.393200  1.0  -0.0329
  C  C3620  1  0.735400  0.609900  0.372800  1.0  -0.044
  C  C3621  1  0.750500  0.562400  0.356200  1.0  -0.0856
  C  C3622  1  0.722000  0.592600  0.325500  1.0  -0.0398
  C  C3623  1  0.668300  0.044800  0.944300  1.0  -0.055
  C  C3624  1  0.675800  0.038400  0.977000  1.0  -0.0529
  C  C3625  1  0.655300  0.131400  0.893200  1.0  -0.0329
  C  C3626  1  0.735400  0.109900  0.872800  1.0  -0.044
  C  C3627  1  0.750500  0.062400  0.856200  1.0  -0.0856
  C  C3628  1  0.722000  0.092600  0.825500  1.0  -0.0398
  C  C3629  1  0.168300  0.544800  0.944300  1.0  -0.055
  C  C3630  1  0.175800  0.538400  0.977000  1.0  -0.0529
  C  C3631  1  0.155300  0.631400  0.893200  1.0  -0.0329
  C  C3632  1  0.235400  0.609900  0.872800  1.0  -0.044
  C  C3633  1  0.250500  0.562400  0.856200  1.0  -0.0856
  C  C3634  1  0.222000  0.592600  0.825500  1.0  -0.0398
  C  C3635  1  0.168300  0.044800  0.444300  1.0  -0.055
  C  C3636  1  0.175800  0.038400  0.477000  1.0  -0.0529
  C  C3637  1  0.155300  0.131400  0.393200  1.0  -0.0329
  C  C3638  1  0.235400  0.109900  0.372800  1.0  -0.044
  C  C3639  1  0.250500  0.062400  0.356200  1.0  -0.0856
  C  C3640  1  0.222000  0.092600  0.325500  1.0  -0.0398
  C  C3641  1  0.081700  0.705200  0.944300  1.0  -0.0539
  C  C3642  1  0.074200  0.711600  0.977000  1.0  -0.0543
  C  C3643  1  0.094700  0.618600  0.893200  1.0  -0.031
  C  C3644  1  0.014600  0.640100  0.872800  1.0  -0.0418
  C  C3645  1  0.999500  0.687600  0.856200  1.0  -0.0862
  C  C3646  1  0.028000  0.657400  0.825500  1.0  -0.0403
  C  C3647  1  0.081700  0.205200  0.444300  1.0  -0.0539
  C  C3648  1  0.074200  0.211600  0.477000  1.0  -0.0543
  C  C3649  1  0.094700  0.118600  0.393200  1.0  -0.031
  C  C3650  1  0.014600  0.140100  0.372800  1.0  -0.0418
  C  C3651  1  0.999500  0.187600  0.356200  1.0  -0.0862
  C  C3652  1  0.028000  0.157400  0.325500  1.0  -0.0403
  C  C3653  1  0.581700  0.705200  0.444300  1.0  -0.0539
  C  C3654  1  0.574200  0.711600  0.477000  1.0  -0.0543
  C  C3655  1  0.594700  0.618600  0.393200  1.0  -0.031
  C  C3656  1  0.514600  0.640100  0.372800  1.0  -0.0418
  C  C3657  1  0.499500  0.687600  0.356200  1.0  -0.0862
  C  C3658  1  0.528000  0.657400  0.325500  1.0  -0.0403
  C  C3659  1  0.581700  0.205200  0.944300  1.0  -0.0539
  C  C3660  1  0.574200  0.211600  0.977000  1.0  -0.0543
  C  C3661  1  0.594700  0.118600  0.893200  1.0  -0.031
  C  C3662  1  0.514600  0.140100  0.872800  1.0  -0.0418
  C  C3663  1  0.499500  0.187600  0.856200  1.0  -0.0862
  C  C3664  1  0.528000  0.157400  0.825500  1.0  -0.0403
  C  C3665  1  0.168300  0.205200  0.805700  1.0  -0.0542
  C  C3666  1  0.175800  0.211600  0.773000  1.0  -0.0519
  C  C3667  1  0.155300  0.118600  0.856800  1.0  -0.032
  C  C3668  1  0.235400  0.140100  0.877200  1.0  -0.0427
  C  C3669  1  0.250500  0.187600  0.893800  1.0  -0.0868
  C  C3670  1  0.222000  0.157400  0.924500  1.0  -0.0407
  C  C3671  1  0.168300  0.705200  0.305700  1.0  -0.0542
  C  C3672  1  0.175800  0.711600  0.273000  1.0  -0.0519
  C  C3673  1  0.155300  0.618600  0.356800  1.0  -0.032
  C  C3674  1  0.235400  0.640100  0.377200  1.0  -0.0427
  C  C3675  1  0.250500  0.687600  0.393800  1.0  -0.0868
  C  C3676  1  0.222000  0.657400  0.424500  1.0  -0.0407
  C  C3677  1  0.668300  0.205200  0.305700  1.0  -0.0542
  C  C3678  1  0.675800  0.211600  0.273000  1.0  -0.0519
  C  C3679  1  0.655300  0.118600  0.356800  1.0  -0.032
  C  C3680  1  0.735400  0.140100  0.377200  1.0  -0.0427
  C  C3681  1  0.750500  0.187600  0.393800  1.0  -0.0868
  C  C3682  1  0.722000  0.157400  0.424500  1.0  -0.0407
  C  C3683  1  0.668300  0.705200  0.805700  1.0  -0.0542
  C  C3684  1  0.675800  0.711600  0.773000  1.0  -0.0519
  C  C3685  1  0.655300  0.618600  0.856800  1.0  -0.032
  C  C3686  1  0.735400  0.640100  0.877200  1.0  -0.0427
  C  C3687  1  0.750500  0.687600  0.893800  1.0  -0.0868
  C  C3688  1  0.722000  0.657400  0.924500  1.0  -0.0407
  C  C3689  1  0.331700  0.555700  0.455200  1.0  -0.0528
  C  C3690  1  0.324200  0.523000  0.461600  1.0  -0.0535
  C  C3691  1  0.344700  0.606800  0.368600  1.0  -0.0288
  C  C3692  1  0.264600  0.627200  0.390100  1.0  -0.0398
  C  C3693  1  0.249500  0.643800  0.437600  1.0  -0.0856
  C  C3694  1  0.278000  0.674500  0.407400  1.0  -0.0416
  C  C3695  1  0.331700  0.055700  0.955200  1.0  -0.0528
  C  C3696  1  0.324200  0.023000  0.961600  1.0  -0.0535
  C  C3697  1  0.344700  0.106800  0.868600  1.0  -0.0288
  C  C3698  1  0.264600  0.127200  0.890100  1.0  -0.0398
  C  C3699  1  0.249500  0.143800  0.937600  1.0  -0.0856
  C  C3700  1  0.278000  0.174500  0.907400  1.0  -0.0416
  C  C3701  1  0.831700  0.555700  0.955200  1.0  -0.0528
  C  C3702  1  0.824200  0.523000  0.961600  1.0  -0.0535
  C  C3703  1  0.844700  0.606800  0.868600  1.0  -0.0288
  C  C3704  1  0.764600  0.627200  0.890100  1.0  -0.0398
  C  C3705  1  0.749500  0.643800  0.937600  1.0  -0.0856
  C  C3706  1  0.778000  0.674500  0.907400  1.0  -0.0416
  C  C3707  1  0.831700  0.055700  0.455200  1.0  -0.0528
  C  C3708  1  0.824200  0.023000  0.461600  1.0  -0.0535
  C  C3709  1  0.844700  0.106800  0.368600  1.0  -0.0288
  C  C3710  1  0.764600  0.127200  0.390100  1.0  -0.0398
  C  C3711  1  0.749500  0.143800  0.437600  1.0  -0.0856
  C  C3712  1  0.778000  0.174500  0.407400  1.0  -0.0416
  C  C3713  1  0.418300  0.694300  0.955200  1.0  -0.0537
  C  C3714  1  0.425800  0.727000  0.961600  1.0  -0.0519
  C  C3715  1  0.405300  0.643200  0.868600  1.0  -0.0295
  C  C3716  1  0.485400  0.622800  0.890100  1.0  -0.0411
  C  C3717  1  0.500500  0.606200  0.937600  1.0  -0.0861
  C  C3718  1  0.472000  0.575500  0.907400  1.0  -0.0409
  C  C3719  1  0.418300  0.194300  0.455200  1.0  -0.0537
  C  C3720  1  0.425800  0.227000  0.461600  1.0  -0.0519
  C  C3721  1  0.405300  0.143200  0.368600  1.0  -0.0295
  C  C3722  1  0.485400  0.122800  0.390100  1.0  -0.0411
  C  C3723  1  0.500500  0.106200  0.437600  1.0  -0.0861
  C  C3724  1  0.472000  0.075500  0.407400  1.0  -0.0409
  C  C3725  1  0.918300  0.694300  0.455200  1.0  -0.0537
  C  C3726  1  0.925800  0.727000  0.461600  1.0  -0.0519
  C  C3727  1  0.905300  0.643200  0.368600  1.0  -0.0289
  C  C3728  1  0.985400  0.622800  0.390100  1.0  -0.0411
  C  C3729  1  0.000500  0.606200  0.437600  1.0  -0.0861
  C  C3730  1  0.972000  0.575500  0.407400  1.0  -0.0409
  C  C3731  1  0.918300  0.194300  0.955200  1.0  -0.0537
  C  C3732  1  0.925800  0.227000  0.961600  1.0  -0.0519
  C  C3733  1  0.905300  0.143200  0.868600  1.0  -0.0295
  C  C3734  1  0.985400  0.122800  0.890100  1.0  -0.0411
  C  C3735  1  0.000500  0.106200  0.937600  1.0  -0.0861
  C  C3736  1  0.972000  0.075500  0.907400  1.0  -0.0409
  C  C3737  1  0.831700  0.194300  0.794800  1.0  -0.0546
  C  C3738  1  0.824200  0.227000  0.788400  1.0  -0.054
  C  C3739  1  0.844700  0.143200  0.881400  1.0  -0.029
  C  C3740  1  0.764600  0.122800  0.859900  1.0  -0.0392
  C  C3741  1  0.749500  0.106200  0.812400  1.0  -0.0861
  C  C3742  1  0.778000  0.075500  0.842600  1.0  -0.0407
  C  C3743  1  0.831700  0.694300  0.294800  1.0  -0.0546
  C  C3744  1  0.824200  0.727000  0.288400  1.0  -0.054
  C  C3745  1  0.844700  0.643200  0.381400  1.0  -0.029
  C  C3746  1  0.764600  0.622800  0.359900  1.0  -0.0392
  C  C3747  1  0.749500  0.606200  0.312400  1.0  -0.0861
  C  C3748  1  0.778000  0.575500  0.342600  1.0  -0.0407
  C  C3749  1  0.331700  0.194300  0.294800  1.0  -0.0546
  C  C3750  1  0.324200  0.227000  0.288400  1.0  -0.054
  C  C3751  1  0.344700  0.143200  0.381400  1.0  -0.029
  C  C3752  1  0.264600  0.122800  0.359900  1.0  -0.0392
  C  C3753  1  0.249500  0.106200  0.312400  1.0  -0.0861
  C  C3754  1  0.278000  0.075500  0.342600  1.0  -0.0407
  C  C3755  1  0.331700  0.694300  0.794800  1.0  -0.0546
  C  C3756  1  0.324200  0.727000  0.788400  1.0  -0.054
  C  C3757  1  0.344700  0.643200  0.881400  1.0  -0.029
  C  C3758  1  0.264600  0.622800  0.859900  1.0  -0.0392
  C  C3759  1  0.249500  0.606200  0.812400  1.0  -0.0861
  C  C3760  1  0.278000  0.575500  0.842600  1.0  -0.0407
  C  C3761  1  0.918300  0.055700  0.294800  1.0  -0.0546
  C  C3762  1  0.925800  0.023000  0.288400  1.0  -0.0506
  C  C3763  1  0.905300  0.106800  0.381400  1.0  -0.0309
  C  C3764  1  0.985400  0.127200  0.359900  1.0  -0.0409
  C  C3765  1  0.000500  0.143800  0.312400  1.0  -0.086
  C  C3766  1  0.972000  0.174500  0.342600  1.0  -0.041
  C  C3767  1  0.918300  0.555700  0.794800  1.0  -0.0546
  C  C3768  1  0.925800  0.523000  0.788400  1.0  -0.0506
  C  C3769  1  0.905300  0.606800  0.881400  1.0  -0.0314
  C  C3770  1  0.985400  0.627200  0.859900  1.0  -0.0409
  C  C3771  1  0.000500  0.643800  0.812400  1.0  -0.086
  C  C3772  1  0.972000  0.674500  0.842600  1.0  -0.041
  C  C3773  1  0.418300  0.055700  0.794800  1.0  -0.0546
  C  C3774  1  0.425800  0.023000  0.788400  1.0  -0.0506
  C  C3775  1  0.405300  0.106800  0.881400  1.0  -0.0314
  C  C3776  1  0.485400  0.127200  0.859900  1.0  -0.0409
  C  C3777  1  0.500500  0.143800  0.812400  1.0  -0.086
  C  C3778  1  0.472000  0.174500  0.842600  1.0  -0.041
  C  C3779  1  0.418300  0.555700  0.294800  1.0  -0.0546
  C  C3780  1  0.425800  0.523000  0.288400  1.0  -0.0506
  C  C3781  1  0.405300  0.606800  0.381400  1.0  -0.0314
  C  C3782  1  0.485400  0.627200  0.359900  1.0  -0.0409
  C  C3783  1  0.500500  0.643800  0.312400  1.0  -0.086
  C  C3784  1  0.472000  0.674500  0.342600  1.0  -0.041
  C  C3785  1  0.055700  0.294800  0.918300  1.0  -0.053
  C  C3786  1  0.023000  0.288400  0.925800  1.0  -0.0471
  C  C3787  1  0.106800  0.381400  0.905300  1.0  -0.0306
  C  C3788  1  0.127200  0.359900  0.985400  1.0  -0.0424
  C  C3789  1  0.143800  0.312400  0.000500  1.0  -0.081
  C  C3790  1  0.174500  0.342600  0.972000  1.0  -0.0446
  C  C3791  1  0.055700  0.794800  0.418300  1.0  -0.053
  C  C3792  1  0.023000  0.788400  0.425800  1.0  -0.0471
  C  C3793  1  0.106800  0.881400  0.405300  1.0  -0.031
  C  C3794  1  0.127200  0.859900  0.485400  1.0  -0.0424
  C  C3795  1  0.143800  0.812400  0.500500  1.0  -0.081
  C  C3796  1  0.174500  0.842600  0.472000  1.0  -0.0446
  C  C3797  1  0.555700  0.294800  0.418300  1.0  -0.053
  C  C3798  1  0.523000  0.288400  0.425800  1.0  -0.0471
  C  C3799  1  0.606800  0.381400  0.405300  1.0  -0.031
  C  C3800  1  0.627200  0.359900  0.485400  1.0  -0.0424
  C  C3801  1  0.643800  0.312400  0.500500  1.0  -0.081
  C  C3802  1  0.674500  0.342600  0.472000  1.0  -0.0446
  C  C3803  1  0.555700  0.794800  0.918300  1.0  -0.053
  C  C3804  1  0.523000  0.788400  0.925800  1.0  -0.0471
  C  C3805  1  0.606800  0.881400  0.905300  1.0  -0.031
  C  C3806  1  0.627200  0.859900  0.985400  1.0  -0.0424
  C  C3807  1  0.643800  0.812400  0.000500  1.0  -0.081
  C  C3808  1  0.674500  0.842600  0.972000  1.0  -0.0446
  C  C3809  1  0.194300  0.794800  0.831700  1.0  -0.0515
  C  C3810  1  0.227000  0.788400  0.824200  1.0  -0.0481
  C  C3811  1  0.143200  0.881400  0.844700  1.0  -0.0312
  C  C3812  1  0.122800  0.859900  0.764600  1.0  -0.0426
  C  C3813  1  0.106200  0.812400  0.749500  1.0  -0.0819
  C  C3814  1  0.075500  0.842600  0.778000  1.0  -0.0433
  C  C3815  1  0.194300  0.294800  0.331700  1.0  -0.0515
  C  C3816  1  0.227000  0.288400  0.324200  1.0  -0.0481
  C  C3817  1  0.143200  0.381400  0.344700  1.0  -0.0312
  C  C3818  1  0.122800  0.359900  0.264600  1.0  -0.0426
  C  C3819  1  0.106200  0.312400  0.249500  1.0  -0.0819
  C  C3820  1  0.075500  0.342600  0.278000  1.0  -0.0433
  C  C3821  1  0.694300  0.794800  0.331700  1.0  -0.0515
  C  C3822  1  0.727000  0.788400  0.324200  1.0  -0.0481
  C  C3823  1  0.643200  0.881400  0.344700  1.0  -0.0312
  C  C3824  1  0.622800  0.859900  0.264600  1.0  -0.0426
  C  C3825  1  0.606200  0.812400  0.249500  1.0  -0.0819
  C  C3826  1  0.575500  0.842600  0.278000  1.0  -0.0433
  C  C3827  1  0.694300  0.294800  0.831700  1.0  -0.0515
  C  C3828  1  0.727000  0.288400  0.824200  1.0  -0.0481
  C  C3829  1  0.643200  0.381400  0.844700  1.0  -0.0312
  C  C3830  1  0.622800  0.359900  0.764600  1.0  -0.0426
  C  C3831  1  0.606200  0.312400  0.749500  1.0  -0.0819
  C  C3832  1  0.575500  0.342600  0.778000  1.0  -0.0433
  C  C3833  1  0.694300  0.955200  0.418300  1.0  -0.0539
  C  C3834  1  0.727000  0.961600  0.425800  1.0  -0.0464
  C  C3835  1  0.643200  0.868600  0.405300  1.0  -0.0312
  C  C3836  1  0.622800  0.890100  0.485400  1.0  -0.043
  C  C3837  1  0.606200  0.937600  0.500500  1.0  -0.0824
  C  C3838  1  0.575500  0.907400  0.472000  1.0  -0.044
  C  C3839  1  0.694300  0.455200  0.918300  1.0  -0.0539
  C  C3840  1  0.727000  0.461600  0.925800  1.0  -0.0464
  C  C3841  1  0.643200  0.368600  0.905300  1.0  -0.0304
  C  C3842  1  0.622800  0.390100  0.985400  1.0  -0.043
  C  C3843  1  0.606200  0.437600  0.000500  1.0  -0.0824
  C  C3844  1  0.575500  0.407400  0.972000  1.0  -0.044
  C  C3845  1  0.194300  0.955200  0.918300  1.0  -0.0539
  C  C3846  1  0.227000  0.961600  0.925800  1.0  -0.0464
  C  C3847  1  0.143200  0.868600  0.905300  1.0  -0.0312
  C  C3848  1  0.122800  0.890100  0.985400  1.0  -0.043
  C  C3849  1  0.106200  0.937600  0.000500  1.0  -0.0824
  C  C3850  1  0.075500  0.907400  0.972000  1.0  -0.044
  C  C3851  1  0.194300  0.455200  0.418300  1.0  -0.0539
  C  C3852  1  0.227000  0.461600  0.425800  1.0  -0.0464
  C  C3853  1  0.143200  0.368600  0.405300  1.0  -0.0312
  C  C3854  1  0.122800  0.390100  0.485400  1.0  -0.043
  C  C3855  1  0.106200  0.437600  0.500500  1.0  -0.0824
  C  C3856  1  0.075500  0.407400  0.472000  1.0  -0.044
  C  C3857  1  0.555700  0.455200  0.331700  1.0  -0.0529
  C  C3858  1  0.523000  0.461600  0.324200  1.0  -0.0494
  C  C3859  1  0.606800  0.368600  0.344700  1.0  -0.0291
  C  C3860  1  0.627200  0.390100  0.264600  1.0  -0.0425
  C  C3861  1  0.643800  0.437600  0.249500  1.0  -0.0821
  C  C3862  1  0.674500  0.407400  0.278000  1.0  -0.045
  C  C3863  1  0.555700  0.955200  0.831700  1.0  -0.0529
  C  C3864  1  0.523000  0.961600  0.824200  1.0  -0.0494
  C  C3865  1  0.606800  0.868600  0.844700  1.0  -0.0291
  C  C3866  1  0.627200  0.890100  0.764600  1.0  -0.0425
  C  C3867  1  0.643800  0.937600  0.749500  1.0  -0.0821
  C  C3868  1  0.674500  0.907400  0.778000  1.0  -0.045
  C  C3869  1  0.055700  0.455200  0.831700  1.0  -0.0529
  C  C3870  1  0.023000  0.461600  0.824200  1.0  -0.0494
  C  C3871  1  0.106800  0.368600  0.844700  1.0  -0.0291
  C  C3872  1  0.127200  0.390100  0.764600  1.0  -0.0425
  C  C3873  1  0.143800  0.437600  0.749500  1.0  -0.0821
  C  C3874  1  0.174500  0.407400  0.778000  1.0  -0.045
  C  C3875  1  0.055700  0.955200  0.331700  1.0  -0.0529
  C  C3876  1  0.023000  0.961600  0.324200  1.0  -0.0494
  C  C3877  1  0.106800  0.868600  0.344700  1.0  -0.0291
  C  C3878  1  0.127200  0.890100  0.264600  1.0  -0.0425
  C  C3879  1  0.143800  0.937600  0.249500  1.0  -0.0821
  C  C3880  1  0.174500  0.907400  0.278000  1.0  -0.045
  C  C3881  1  0.794800  0.831700  0.194300  1.0  -0.0552
  C  C3882  1  0.788400  0.824200  0.227000  1.0  -0.0542
  C  C3883  1  0.881400  0.844700  0.143200  1.0  -0.0323
  C  C3884  1  0.859900  0.764600  0.122800  1.0  -0.0423
  C  C3885  1  0.812400  0.749500  0.106200  1.0  -0.087
  C  C3886  1  0.842600  0.778000  0.075500  1.0  -0.0423
  C  C3887  1  0.794800  0.331700  0.694300  1.0  -0.0552
  C  C3888  1  0.788400  0.324200  0.727000  1.0  -0.0542
  C  C3889  1  0.881400  0.344700  0.643200  1.0  -0.0323
  C  C3890  1  0.859900  0.264600  0.622800  1.0  -0.0423
  C  C3891  1  0.812400  0.249500  0.606200  1.0  -0.087
  C  C3892  1  0.842600  0.278000  0.575500  1.0  -0.0423
  C  C3893  1  0.294800  0.831700  0.694300  1.0  -0.0552
  C  C3894  1  0.288400  0.824200  0.727000  1.0  -0.0542
  C  C3895  1  0.381400  0.844700  0.643200  1.0  -0.0323
  C  C3896  1  0.359900  0.764600  0.622800  1.0  -0.0423
  C  C3897  1  0.312400  0.749500  0.606200  1.0  -0.087
  C  C3898  1  0.342600  0.778000  0.575500  1.0  -0.0423
  C  C3899  1  0.294800  0.331700  0.194300  1.0  -0.0552
  C  C3900  1  0.288400  0.324200  0.227000  1.0  -0.0542
  C  C3901  1  0.381400  0.344700  0.143200  1.0  -0.0323
  C  C3902  1  0.359900  0.264600  0.122800  1.0  -0.0423
  C  C3903  1  0.312400  0.249500  0.106200  1.0  -0.087
  C  C3904  1  0.342600  0.278000  0.075500  1.0  -0.0423
  C  C3905  1  0.294800  0.918300  0.055700  1.0  -0.0536
  C  C3906  1  0.288400  0.925800  0.023000  1.0  -0.0516
  C  C3907  1  0.381400  0.905300  0.106800  1.0  -0.0319
  C  C3908  1  0.359900  0.985400  0.127200  1.0  -0.0427
  C  C3909  1  0.312400  0.000500  0.143800  1.0  -0.0881
  C  C3910  1  0.342600  0.972000  0.174500  1.0  -0.0417
  C  C3911  1  0.294800  0.418300  0.555700  1.0  -0.0536
  C  C3912  1  0.288400  0.425800  0.523000  1.0  -0.0516
  C  C3913  1  0.381400  0.405300  0.606800  1.0  -0.0325
  C  C3914  1  0.359900  0.485400  0.627200  1.0  -0.0427
  C  C3915  1  0.312400  0.500500  0.643800  1.0  -0.0881
  C  C3916  1  0.342600  0.472000  0.674500  1.0  -0.0417
  C  C3917  1  0.794800  0.918300  0.555700  1.0  -0.0536
  C  C3918  1  0.788400  0.925800  0.523000  1.0  -0.0516
  C  C3919  1  0.881400  0.905300  0.606800  1.0  -0.0325
  C  C3920  1  0.859900  0.985400  0.627200  1.0  -0.0427
  C  C3921  1  0.812400  0.000500  0.643800  1.0  -0.0881
  C  C3922  1  0.842600  0.972000  0.674500  1.0  -0.0417
  C  C3923  1  0.794800  0.418300  0.055700  1.0  -0.0536
  C  C3924  1  0.788400  0.425800  0.023000  1.0  -0.0516
  C  C3925  1  0.881400  0.405300  0.106800  1.0  -0.0325
  C  C3926  1  0.859900  0.485400  0.127200  1.0  -0.0427
  C  C3927  1  0.812400  0.500500  0.143800  1.0  -0.0881
  C  C3928  1  0.842600  0.472000  0.174500  1.0  -0.0417
  C  C3929  1  0.455200  0.331700  0.555700  1.0  -0.0547
  C  C3930  1  0.461600  0.324200  0.523000  1.0  -0.0547
  C  C3931  1  0.368600  0.344700  0.606800  1.0  -0.0294
  C  C3932  1  0.390100  0.264600  0.627200  1.0  -0.0423
  C  C3933  1  0.437600  0.249500  0.643800  1.0  -0.0881
  C  C3934  1  0.407400  0.278000  0.674500  1.0  -0.0424
  C  C3935  1  0.455200  0.831700  0.055700  1.0  -0.0547
  C  C3936  1  0.461600  0.824200  0.023000  1.0  -0.0547
  C  C3937  1  0.368600  0.844700  0.106800  1.0  -0.0294
  C  C3938  1  0.390100  0.764600  0.127200  1.0  -0.0423
  C  C3939  1  0.437600  0.749500  0.143800  1.0  -0.0881
  C  C3940  1  0.407400  0.778000  0.174500  1.0  -0.0424
  C  C3941  1  0.955200  0.331700  0.055700  1.0  -0.0547
  C  C3942  1  0.961600  0.324200  0.023000  1.0  -0.0547
  C  C3943  1  0.868600  0.344700  0.106800  1.0  -0.0294
  C  C3944  1  0.890100  0.264600  0.127200  1.0  -0.0423
  C  C3945  1  0.937600  0.249500  0.143800  1.0  -0.0881
  C  C3946  1  0.907400  0.278000  0.174500  1.0  -0.0424
  C  C3947  1  0.955200  0.831700  0.555700  1.0  -0.0547
  C  C3948  1  0.961600  0.824200  0.523000  1.0  -0.0547
  C  C3949  1  0.868600  0.844700  0.606800  1.0  -0.0294
  C  C3950  1  0.890100  0.764600  0.627200  1.0  -0.0423
  C  C3951  1  0.937600  0.749500  0.643800  1.0  -0.0881
  C  C3952  1  0.907400  0.778000  0.674500  1.0  -0.0424
  C  C3953  1  0.955200  0.418300  0.694300  1.0  -0.0542
  C  C3954  1  0.961600  0.425800  0.727000  1.0  -0.0539
  C  C3955  1  0.868600  0.405300  0.643200  1.0  -0.0309
  C  C3956  1  0.890100  0.485400  0.622800  1.0  -0.0422
  C  C3957  1  0.937600  0.500500  0.606200  1.0  -0.0889
  C  C3958  1  0.907400  0.472000  0.575500  1.0  -0.0437
  C  C3959  1  0.955200  0.918300  0.194300  1.0  -0.0542
  C  C3960  1  0.961600  0.925800  0.227000  1.0  -0.0539
  C  C3961  1  0.868600  0.905300  0.143200  1.0  -0.0309
  C  C3962  1  0.890100  0.985400  0.122800  1.0  -0.0422
  C  C3963  1  0.937600  0.000500  0.106200  1.0  -0.0889
  C  C3964  1  0.907400  0.972000  0.075500  1.0  -0.0437
  C  C3965  1  0.455200  0.418300  0.194300  1.0  -0.0542
  C  C3966  1  0.461600  0.425800  0.227000  1.0  -0.0539
  C  C3967  1  0.368600  0.405300  0.143200  1.0  -0.0309
  C  C3968  1  0.390100  0.485400  0.122800  1.0  -0.0422
  C  C3969  1  0.437600  0.500500  0.106200  1.0  -0.0889
  C  C3970  1  0.407400  0.472000  0.075500  1.0  -0.0437
  C  C3971  1  0.455200  0.918300  0.694300  1.0  -0.0542
  C  C3972  1  0.461600  0.925800  0.727000  1.0  -0.0539
  C  C3973  1  0.368600  0.905300  0.643200  1.0  -0.0304
  C  C3974  1  0.390100  0.985400  0.622800  1.0  -0.0422
  C  C3975  1  0.437600  0.000500  0.606200  1.0  -0.0889
  C  C3976  1  0.407400  0.972000  0.575500  1.0  -0.0437
  C  C3977  1  0.694300  0.418300  0.955200  1.0  -0.0534
  C  C3978  1  0.727000  0.425800  0.961600  1.0  -0.0479
  C  C3979  1  0.643200  0.405300  0.868600  1.0  -0.0298
  C  C3980  1  0.622800  0.485400  0.890100  1.0  -0.0409
  C  C3981  1  0.606200  0.500500  0.937600  1.0  -0.0847
  C  C3982  1  0.575500  0.472000  0.907400  1.0  -0.0423
  C  C3983  1  0.694300  0.918300  0.455200  1.0  -0.0534
  C  C3984  1  0.727000  0.925800  0.461600  1.0  -0.0479
  C  C3985  1  0.643200  0.905300  0.368600  1.0  -0.0298
  C  C3986  1  0.622800  0.985400  0.390100  1.0  -0.0409
  C  C3987  1  0.606200  0.000500  0.437600  1.0  -0.0847
  C  C3988  1  0.575500  0.972000  0.407400  1.0  -0.0423
  C  C3989  1  0.194300  0.418300  0.455200  1.0  -0.0534
  C  C3990  1  0.227000  0.425800  0.461600  1.0  -0.0479
  C  C3991  1  0.143200  0.405300  0.368600  1.0  -0.0298
  C  C3992  1  0.122800  0.485400  0.390100  1.0  -0.0409
  C  C3993  1  0.106200  0.500500  0.437600  1.0  -0.0847
  C  C3994  1  0.075500  0.472000  0.407400  1.0  -0.0423
  C  C3995  1  0.194300  0.918300  0.955200  1.0  -0.0534
  C  C3996  1  0.227000  0.925800  0.961600  1.0  -0.0479
  C  C3997  1  0.143200  0.905300  0.868600  1.0  -0.0298
  C  C3998  1  0.122800  0.985400  0.890100  1.0  -0.0409
  C  C3999  1  0.106200  0.000500  0.937600  1.0  -0.0847
  C  C4000  1  0.075500  0.972000  0.907400  1.0  -0.0423
  C  C4001  1  0.555700  0.331700  0.455200  1.0  -0.054
  C  C4002  1  0.523000  0.324200  0.461600  1.0  -0.0491
  C  C4003  1  0.606800  0.344700  0.368600  1.0  -0.0302
  C  C4004  1  0.627200  0.264600  0.390100  1.0  -0.0408
  C  C4005  1  0.643800  0.249500  0.437600  1.0  -0.0862
  C  C4006  1  0.674500  0.278000  0.407400  1.0  -0.0435
  C  C4007  1  0.555700  0.831700  0.955200  1.0  -0.054
  C  C4008  1  0.523000  0.824200  0.961600  1.0  -0.0491
  C  C4009  1  0.606800  0.844700  0.868600  1.0  -0.0302
  C  C4010  1  0.627200  0.764600  0.890100  1.0  -0.0408
  C  C4011  1  0.643800  0.749500  0.937600  1.0  -0.0862
  C  C4012  1  0.674500  0.778000  0.907400  1.0  -0.0435
  C  C4013  1  0.055700  0.331700  0.955200  1.0  -0.054
  C  C4014  1  0.023000  0.324200  0.961600  1.0  -0.0491
  C  C4015  1  0.106800  0.344700  0.868600  1.0  -0.0302
  C  C4016  1  0.127200  0.264600  0.890100  1.0  -0.0408
  C  C4017  1  0.143800  0.249500  0.937600  1.0  -0.0862
  C  C4018  1  0.174500  0.278000  0.907400  1.0  -0.0435
  C  C4019  1  0.055700  0.831700  0.455200  1.0  -0.054
  C  C4020  1  0.023000  0.824200  0.461600  1.0  -0.0491
  C  C4021  1  0.106800  0.844700  0.368600  1.0  -0.0307
  C  C4022  1  0.127200  0.764600  0.390100  1.0  -0.0408
  C  C4023  1  0.143800  0.749500  0.437600  1.0  -0.0862
  C  C4024  1  0.174500  0.778000  0.407400  1.0  -0.0435
  C  C4025  1  0.055700  0.918300  0.294800  1.0  -0.0551
  C  C4026  1  0.023000  0.925800  0.288400  1.0  -0.0476
  C  C4027  1  0.106800  0.905300  0.381400  1.0  -0.0308
  C  C4028  1  0.127200  0.985400  0.359900  1.0  -0.0404
  C  C4029  1  0.143800  0.000500  0.312400  1.0  -0.0849
  C  C4030  1  0.174500  0.972000  0.342600  1.0  -0.0434
  C  C4031  1  0.055700  0.418300  0.794800  1.0  -0.0551
  C  C4032  1  0.023000  0.425800  0.788400  1.0  -0.0476
  C  C4033  1  0.106800  0.405300  0.881400  1.0  -0.0308
  C  C4034  1  0.127200  0.485400  0.859900  1.0  -0.0404
  C  C4035  1  0.143800  0.500500  0.812400  1.0  -0.0849
  C  C4036  1  0.174500  0.472000  0.842600  1.0  -0.0434
  C  C4037  1  0.555700  0.918300  0.794800  1.0  -0.0551
  C  C4038  1  0.523000  0.925800  0.788400  1.0  -0.0476
  C  C4039  1  0.606800  0.905300  0.881400  1.0  -0.0308
  C  C4040  1  0.627200  0.985400  0.859900  1.0  -0.0404
  C  C4041  1  0.643800  0.000500  0.812400  1.0  -0.0849
  C  C4042  1  0.674500  0.972000  0.842600  1.0  -0.0434
  C  C4043  1  0.555700  0.418300  0.294800  1.0  -0.0551
  C  C4044  1  0.523000  0.425800  0.288400  1.0  -0.0476
  C  C4045  1  0.606800  0.405300  0.381400  1.0  -0.0308
  C  C4046  1  0.627200  0.485400  0.359900  1.0  -0.0404
  C  C4047  1  0.643800  0.500500  0.312400  1.0  -0.0849
  C  C4048  1  0.674500  0.472000  0.342600  1.0  -0.0434
  C  C4049  1  0.194300  0.831700  0.794800  1.0  -0.0547
  C  C4050  1  0.227000  0.824200  0.788400  1.0  -0.0492
  C  C4051  1  0.143200  0.844700  0.881400  1.0  -0.0305
  C  C4052  1  0.122800  0.764600  0.859900  1.0  -0.0401
  C  C4053  1  0.106200  0.749500  0.812400  1.0  -0.0841
  C  C4054  1  0.075500  0.778000  0.842600  1.0  -0.0431
  C  C4055  1  0.194300  0.331700  0.294800  1.0  -0.0547
  C  C4056  1  0.227000  0.324200  0.288400  1.0  -0.0492
  C  C4057  1  0.143200  0.344700  0.381400  1.0  -0.0305
  C  C4058  1  0.122800  0.264600  0.359900  1.0  -0.0401
  C  C4059  1  0.106200  0.249500  0.312400  1.0  -0.0841
  C  C4060  1  0.075500  0.278000  0.342600  1.0  -0.0431
  C  C4061  1  0.694300  0.831700  0.294800  1.0  -0.0547
  C  C4062  1  0.727000  0.824200  0.288400  1.0  -0.0492
  C  C4063  1  0.643200  0.844700  0.381400  1.0  -0.031
  C  C4064  1  0.622800  0.764600  0.359900  1.0  -0.0401
  C  C4065  1  0.606200  0.749500  0.312400  1.0  -0.0841
  C  C4066  1  0.575500  0.778000  0.342600  1.0  -0.0431
  C  C4067  1  0.694300  0.331700  0.794800  1.0  -0.0547
  C  C4068  1  0.727000  0.324200  0.788400  1.0  -0.0492
  C  C4069  1  0.643200  0.344700  0.881400  1.0  -0.0305
  C  C4070  1  0.622800  0.264600  0.859900  1.0  -0.0401
  C  C4071  1  0.606200  0.249500  0.812400  1.0  -0.0841
  C  C4072  1  0.575500  0.278000  0.842600  1.0  -0.0431
  C  C4073  1  0.955200  0.694300  0.418300  1.0  -0.0534
  C  C4074  1  0.961600  0.727000  0.425800  1.0  -0.0488
  C  C4075  1  0.868600  0.643200  0.405300  1.0  -0.0277
  C  C4076  1  0.890100  0.622800  0.485400  1.0  -0.0425
  C  C4077  1  0.937600  0.606200  0.500500  1.0  -0.0851
  C  C4078  1  0.907400  0.575500  0.472000  1.0  -0.042
  C  C4079  1  0.955200  0.194300  0.918300  1.0  -0.0534
  C  C4080  1  0.961600  0.227000  0.925800  1.0  -0.0488
  C  C4081  1  0.868600  0.143200  0.905300  1.0  -0.0277
  C  C4082  1  0.890100  0.122800  0.985400  1.0  -0.0425
  C  C4083  1  0.937600  0.106200  0.000500  1.0  -0.0851
  C  C4084  1  0.907400  0.075500  0.972000  1.0  -0.042
  C  C4085  1  0.455200  0.694300  0.918300  1.0  -0.0534
  C  C4086  1  0.461600  0.727000  0.925800  1.0  -0.0488
  C  C4087  1  0.368600  0.643200  0.905300  1.0  -0.0283
  C  C4088  1  0.390100  0.622800  0.985400  1.0  -0.0425
  C  C4089  1  0.437600  0.606200  0.000500  1.0  -0.0851
  C  C4090  1  0.407400  0.575500  0.972000  1.0  -0.042
  C  C4091  1  0.455200  0.194300  0.418300  1.0  -0.0534
  C  C4092  1  0.461600  0.227000  0.425800  1.0  -0.0488
  C  C4093  1  0.368600  0.143200  0.405300  1.0  -0.0277
  C  C4094  1  0.390100  0.122800  0.485400  1.0  -0.0425
  C  C4095  1  0.437600  0.106200  0.500500  1.0  -0.0851
  C  C4096  1  0.407400  0.075500  0.472000  1.0  -0.042
  C  C4097  1  0.455200  0.555700  0.331700  1.0  -0.051
  C  C4098  1  0.461600  0.523000  0.324200  1.0  -0.0498
  C  C4099  1  0.368600  0.606800  0.344700  1.0  -0.0283
  C  C4100  1  0.390100  0.627200  0.264600  1.0  -0.0429
  C  C4101  1  0.437600  0.643800  0.249500  1.0  -0.0853
  C  C4102  1  0.407400  0.674500  0.278000  1.0  -0.0439
  C  C4103  1  0.455200  0.055700  0.831700  1.0  -0.051
  C  C4104  1  0.461600  0.023000  0.824200  1.0  -0.0498
  C  C4105  1  0.368600  0.106800  0.844700  1.0  -0.0283
  C  C4106  1  0.390100  0.127200  0.764600  1.0  -0.0429
  C  C4107  1  0.437600  0.143800  0.749500  1.0  -0.0853
  C  C4108  1  0.407400  0.174500  0.778000  1.0  -0.0439
  C  C4109  1  0.955200  0.555700  0.831700  1.0  -0.051
  C  C4110  1  0.961600  0.523000  0.824200  1.0  -0.0498
  C  C4111  1  0.868600  0.606800  0.844700  1.0  -0.0283
  C  C4112  1  0.890100  0.627200  0.764600  1.0  -0.0429
  C  C4113  1  0.937600  0.643800  0.749500  1.0  -0.0853
  C  C4114  1  0.907400  0.674500  0.778000  1.0  -0.0439
  C  C4115  1  0.955200  0.055700  0.331700  1.0  -0.051
  C  C4116  1  0.961600  0.023000  0.324200  1.0  -0.0498
  C  C4117  1  0.868600  0.106800  0.344700  1.0  -0.0283
  C  C4118  1  0.890100  0.127200  0.264600  1.0  -0.0429
  C  C4119  1  0.937600  0.143800  0.249500  1.0  -0.0853
  C  C4120  1  0.907400  0.174500  0.278000  1.0  -0.0439
  C  C4121  1  0.294800  0.055700  0.918300  1.0  -0.0534
  C  C4122  1  0.288400  0.023000  0.925800  1.0  -0.0467
  C  C4123  1  0.381400  0.106800  0.905300  1.0  -0.032
  C  C4124  1  0.359900  0.127200  0.985400  1.0  -0.0429
  C  C4125  1  0.312400  0.143800  0.000500  1.0  -0.0835
  C  C4126  1  0.342600  0.174500  0.972000  1.0  -0.0425
  C  C4127  1  0.294800  0.555700  0.418300  1.0  -0.0534
  C  C4128  1  0.288400  0.523000  0.425800  1.0  -0.0467
  C  C4129  1  0.381400  0.606800  0.405300  1.0  -0.0315
  C  C4130  1  0.359900  0.627200  0.485400  1.0  -0.0429
  C  C4131  1  0.312400  0.643800  0.500500  1.0  -0.0835
  C  C4132  1  0.342600  0.674500  0.472000  1.0  -0.0425
  C  C4133  1  0.794800  0.055700  0.418300  1.0  -0.0534
  C  C4134  1  0.788400  0.023000  0.425800  1.0  -0.0467
  C  C4135  1  0.881400  0.106800  0.405300  1.0  -0.0315
  C  C4136  1  0.859900  0.127200  0.485400  1.0  -0.0429
  C  C4137  1  0.812400  0.143800  0.500500  1.0  -0.0835
  C  C4138  1  0.842600  0.174500  0.472000  1.0  -0.0425
  C  C4139  1  0.794800  0.555700  0.918300  1.0  -0.0534
  C  C4140  1  0.788400  0.523000  0.925800  1.0  -0.0467
  C  C4141  1  0.881400  0.606800  0.905300  1.0  -0.0315
  C  C4142  1  0.859900  0.627200  0.985400  1.0  -0.0429
  C  C4143  1  0.812400  0.643800  0.000500  1.0  -0.0835
  C  C4144  1  0.842600  0.674500  0.972000  1.0  -0.0425
  C  C4145  1  0.794800  0.194300  0.831700  1.0  -0.0531
  C  C4146  1  0.788400  0.227000  0.824200  1.0  -0.0497
  C  C4147  1  0.881400  0.143200  0.844700  1.0  -0.0311
  C  C4148  1  0.859900  0.122800  0.764600  1.0  -0.0427
  C  C4149  1  0.812400  0.106200  0.749500  1.0  -0.0822
  C  C4150  1  0.842600  0.075500  0.778000  1.0  -0.0422
  C  C4151  1  0.794800  0.694300  0.331700  1.0  -0.0531
  C  C4152  1  0.788400  0.727000  0.324200  1.0  -0.0497
  C  C4153  1  0.881400  0.643200  0.344700  1.0  -0.0311
  C  C4154  1  0.859900  0.622800  0.264600  1.0  -0.0427
  C  C4155  1  0.812400  0.606200  0.249500  1.0  -0.0822
  C  C4156  1  0.842600  0.575500  0.278000  1.0  -0.0422
  C  C4157  1  0.294800  0.194300  0.331700  1.0  -0.0531
  C  C4158  1  0.288400  0.227000  0.324200  1.0  -0.0497
  C  C4159  1  0.381400  0.143200  0.344700  1.0  -0.0311
  C  C4160  1  0.359900  0.122800  0.264600  1.0  -0.0427
  C  C4161  1  0.312400  0.106200  0.249500  1.0  -0.0822
  C  C4162  1  0.342600  0.075500  0.278000  1.0  -0.0422
  C  C4163  1  0.294800  0.694300  0.831700  1.0  -0.0531
  C  C4164  1  0.288400  0.727000  0.824200  1.0  -0.0497
  C  C4165  1  0.381400  0.643200  0.844700  1.0  -0.0311
  C  C4166  1  0.359900  0.622800  0.764600  1.0  -0.0427
  C  C4167  1  0.312400  0.606200  0.749500  1.0  -0.0822
  C  C4168  1  0.342600  0.575500  0.778000  1.0  -0.0422
  C  C4169  1  0.418300  0.955200  0.694300  1.0  -0.0547
  C  C4170  1  0.425800  0.961600  0.727000  1.0  -0.0519
  C  C4171  1  0.405300  0.868600  0.643200  1.0  -0.0304
  C  C4172  1  0.485400  0.890100  0.622800  1.0  -0.0431
  C  C4173  1  0.500500  0.937600  0.606200  1.0  -0.0857
  C  C4174  1  0.472000  0.907400  0.575500  1.0  -0.0407
  C  C4175  1  0.418300  0.455200  0.194300  1.0  -0.0547
  C  C4176  1  0.425800  0.461600  0.227000  1.0  -0.0519
  C  C4177  1  0.405300  0.368600  0.143200  1.0  -0.0304
  C  C4178  1  0.485400  0.390100  0.122800  1.0  -0.0431
  C  C4179  1  0.500500  0.437600  0.106200  1.0  -0.0857
  C  C4180  1  0.472000  0.407400  0.075500  1.0  -0.0407
  C  C4181  1  0.918300  0.955200  0.194300  1.0  -0.0547
  C  C4182  1  0.925800  0.961600  0.227000  1.0  -0.0519
  C  C4183  1  0.905300  0.868600  0.143200  1.0  -0.0304
  C  C4184  1  0.985400  0.890100  0.122800  1.0  -0.0431
  C  C4185  1  0.000500  0.937600  0.106200  1.0  -0.0857
  C  C4186  1  0.972000  0.907400  0.075500  1.0  -0.0407
  C  C4187  1  0.918300  0.455200  0.694300  1.0  -0.0547
  C  C4188  1  0.925800  0.461600  0.727000  1.0  -0.0519
  C  C4189  1  0.905300  0.368600  0.643200  1.0  -0.0304
  C  C4190  1  0.985400  0.390100  0.622800  1.0  -0.0431
  C  C4191  1  0.000500  0.437600  0.606200  1.0  -0.0857
  C  C4192  1  0.972000  0.407400  0.575500  1.0  -0.0407
  C  C4193  1  0.331700  0.455200  0.555700  1.0  -0.0549
  C  C4194  1  0.324200  0.461600  0.523000  1.0  -0.0523
  C  C4195  1  0.344700  0.368600  0.606800  1.0  -0.0297
  C  C4196  1  0.264600  0.390100  0.627200  1.0  -0.0421
  C  C4197  1  0.249500  0.437600  0.643800  1.0  -0.0867
  C  C4198  1  0.278000  0.407400  0.674500  1.0  -0.0399
  C  C4199  1  0.331700  0.955200  0.055700  1.0  -0.0549
  C  C4200  1  0.324200  0.961600  0.023000  1.0  -0.0523
  C  C4201  1  0.344700  0.868600  0.106800  1.0  -0.0297
  C  C4202  1  0.264600  0.890100  0.127200  1.0  -0.0421
  C  C4203  1  0.249500  0.937600  0.143800  1.0  -0.0867
  C  C4204  1  0.278000  0.907400  0.174500  1.0  -0.0399
  C  C4205  1  0.831700  0.455200  0.055700  1.0  -0.0549
  C  C4206  1  0.824200  0.461600  0.023000  1.0  -0.0523
  C  C4207  1  0.844700  0.368600  0.106800  1.0  -0.0302
  C  C4208  1  0.764600  0.390100  0.127200  1.0  -0.0421
  C  C4209  1  0.749500  0.437600  0.143800  1.0  -0.0867
  C  C4210  1  0.778000  0.407400  0.174500  1.0  -0.0399
  C  C4211  1  0.831700  0.955200  0.555700  1.0  -0.0549
  C  C4212  1  0.824200  0.961600  0.523000  1.0  -0.0523
  C  C4213  1  0.844700  0.868600  0.606800  1.0  -0.0297
  C  C4214  1  0.764600  0.890100  0.627200  1.0  -0.0421
  C  C4215  1  0.749500  0.937600  0.643800  1.0  -0.0867
  C  C4216  1  0.778000  0.907400  0.674500  1.0  -0.0399
  C  C4217  1  0.918300  0.294800  0.055700  1.0  -0.0546
  C  C4218  1  0.925800  0.288400  0.023000  1.0  -0.0509
  C  C4219  1  0.905300  0.381400  0.106800  1.0  -0.0319
  C  C4220  1  0.985400  0.359900  0.127200  1.0  -0.0422
  C  C4221  1  0.000500  0.312400  0.143800  1.0  -0.0864
  C  C4222  1  0.972000  0.342600  0.174500  1.0  -0.0401
  C  C4223  1  0.918300  0.794800  0.555700  1.0  -0.0546
  C  C4224  1  0.925800  0.788400  0.523000  1.0  -0.0509
  C  C4225  1  0.905300  0.881400  0.606800  1.0  -0.0319
  C  C4226  1  0.985400  0.859900  0.627200  1.0  -0.0422
  C  C4227  1  0.000500  0.812400  0.643800  1.0  -0.0864
  C  C4228  1  0.972000  0.842600  0.674500  1.0  -0.0401
  C  C4229  1  0.418300  0.294800  0.555700  1.0  -0.0546
  C  C4230  1  0.425800  0.288400  0.523000  1.0  -0.0509
  C  C4231  1  0.405300  0.381400  0.606800  1.0  -0.0319
  C  C4232  1  0.485400  0.359900  0.627200  1.0  -0.0422
  C  C4233  1  0.500500  0.312400  0.643800  1.0  -0.0864
  C  C4234  1  0.472000  0.342600  0.674500  1.0  -0.0401
  C  C4235  1  0.418300  0.794800  0.055700  1.0  -0.0546
  C  C4236  1  0.425800  0.788400  0.023000  1.0  -0.0509
  C  C4237  1  0.405300  0.881400  0.106800  1.0  -0.0319
  C  C4238  1  0.485400  0.859900  0.127200  1.0  -0.0422
  C  C4239  1  0.500500  0.812400  0.143800  1.0  -0.0864
  C  C4240  1  0.472000  0.842600  0.174500  1.0  -0.0401
  C  C4241  1  0.831700  0.794800  0.194300  1.0  -0.0547
  C  C4242  1  0.824200  0.788400  0.227000  1.0  -0.0542
  C  C4243  1  0.844700  0.881400  0.143200  1.0  -0.0311
  C  C4244  1  0.764600  0.859900  0.122800  1.0  -0.0421
  C  C4245  1  0.749500  0.812400  0.106200  1.0  -0.0845
  C  C4246  1  0.778000  0.842600  0.075500  1.0  -0.0401
  C  C4247  1  0.831700  0.294800  0.694300  1.0  -0.0547
  C  C4248  1  0.824200  0.288400  0.727000  1.0  -0.0542
  C  C4249  1  0.844700  0.381400  0.643200  1.0  -0.0318
  C  C4250  1  0.764600  0.359900  0.622800  1.0  -0.0421
  C  C4251  1  0.749500  0.312400  0.606200  1.0  -0.0845
  C  C4252  1  0.778000  0.342600  0.575500  1.0  -0.0401
  C  C4253  1  0.331700  0.794800  0.694300  1.0  -0.0547
  C  C4254  1  0.324200  0.788400  0.727000  1.0  -0.0542
  C  C4255  1  0.344700  0.881400  0.643200  1.0  -0.0311
  C  C4256  1  0.264600  0.859900  0.622800  1.0  -0.0421
  C  C4257  1  0.249500  0.812400  0.606200  1.0  -0.0845
  C  C4258  1  0.278000  0.842600  0.575500  1.0  -0.0401
  C  C4259  1  0.331700  0.294800  0.194300  1.0  -0.0547
  C  C4260  1  0.324200  0.288400  0.227000  1.0  -0.0542
  C  C4261  1  0.344700  0.381400  0.143200  1.0  -0.0311
  C  C4262  1  0.264600  0.359900  0.122800  1.0  -0.0421
  C  C4263  1  0.249500  0.312400  0.106200  1.0  -0.0845
  C  C4264  1  0.278000  0.342600  0.075500  1.0  -0.0401
  C  C4265  1  0.668300  0.444300  0.544800  1.0  -0.0541
  C  C4266  1  0.675800  0.477000  0.538400  1.0  -0.051
  C  C4267  1  0.655300  0.393200  0.631400  1.0  -0.0298
  C  C4268  1  0.735400  0.372800  0.609900  1.0  -0.0418
  C  C4269  1  0.750500  0.356200  0.562400  1.0  -0.0864
  C  C4270  1  0.722000  0.325500  0.592600  1.0  -0.0408
  C  C4271  1  0.668300  0.944300  0.044800  1.0  -0.0541
  C  C4272  1  0.675800  0.977000  0.038400  1.0  -0.051
  C  C4273  1  0.655300  0.893200  0.131400  1.0  -0.0298
  C  C4274  1  0.735400  0.872800  0.109900  1.0  -0.0418
  C  C4275  1  0.750500  0.856200  0.062400  1.0  -0.0864
  C  C4276  1  0.722000  0.825500  0.092600  1.0  -0.0408
  C  C4277  1  0.168300  0.444300  0.044800  1.0  -0.0541
  C  C4278  1  0.175800  0.477000  0.038400  1.0  -0.051
  C  C4279  1  0.155300  0.393200  0.131400  1.0  -0.0298
  C  C4280  1  0.235400  0.372800  0.109900  1.0  -0.0418
  C  C4281  1  0.250500  0.356200  0.062400  1.0  -0.0864
  C  C4282  1  0.222000  0.325500  0.092600  1.0  -0.0408
  C  C4283  1  0.168300  0.944300  0.544800  1.0  -0.0541
  C  C4284  1  0.175800  0.977000  0.538400  1.0  -0.051
  C  C4285  1  0.155300  0.893200  0.631400  1.0  -0.0298
  C  C4286  1  0.235400  0.872800  0.609900  1.0  -0.0418
  C  C4287  1  0.250500  0.856200  0.562400  1.0  -0.0864
  C  C4288  1  0.222000  0.825500  0.592600  1.0  -0.0408
  C  C4289  1  0.581700  0.305700  0.044800  1.0  -0.0548
  C  C4290  1  0.574200  0.273000  0.038400  1.0  -0.0526
  C  C4291  1  0.594700  0.356800  0.131400  1.0  -0.0295
  C  C4292  1  0.514600  0.377200  0.109900  1.0  -0.0396
  C  C4293  1  0.499500  0.393800  0.062400  1.0  -0.0859
  C  C4294  1  0.528000  0.424500  0.092600  1.0  -0.0415
  C  C4295  1  0.581700  0.805700  0.544800  1.0  -0.0548
  C  C4296  1  0.574200  0.773000  0.538400  1.0  -0.0526
  C  C4297  1  0.594700  0.856800  0.631400  1.0  -0.0295
  C  C4298  1  0.514600  0.877200  0.609900  1.0  -0.0396
  C  C4299  1  0.499500  0.893800  0.562400  1.0  -0.0859
  C  C4300  1  0.528000  0.924500  0.592600  1.0  -0.0415
  C  C4301  1  0.081700  0.305700  0.544800  1.0  -0.0548
  C  C4302  1  0.074200  0.273000  0.538400  1.0  -0.0526
  C  C4303  1  0.094700  0.356800  0.631400  1.0  -0.0289
  C  C4304  1  0.014600  0.377200  0.609900  1.0  -0.0396
  C  C4305  1  0.999500  0.393800  0.562400  1.0  -0.0859
  C  C4306  1  0.028000  0.424500  0.592600  1.0  -0.0415
  C  C4307  1  0.081700  0.805700  0.044800  1.0  -0.0548
  C  C4308  1  0.074200  0.773000  0.038400  1.0  -0.0526
  C  C4309  1  0.094700  0.856800  0.131400  1.0  -0.0289
  C  C4310  1  0.014600  0.877200  0.109900  1.0  -0.0396
  C  C4311  1  0.999500  0.893800  0.062400  1.0  -0.0859
  C  C4312  1  0.028000  0.924500  0.092600  1.0  -0.0415
  C  C4313  1  0.168300  0.805700  0.205200  1.0  -0.055
  C  C4314  1  0.175800  0.773000  0.211600  1.0  -0.0498
  C  C4315  1  0.155300  0.856800  0.118600  1.0  -0.0313
  C  C4316  1  0.235400  0.877200  0.140100  1.0  -0.0409
  C  C4317  1  0.250500  0.893800  0.187600  1.0  -0.0856
  C  C4318  1  0.222000  0.924500  0.157400  1.0  -0.0411
  C  C4319  1  0.168300  0.305700  0.705200  1.0  -0.055
  C  C4320  1  0.175800  0.273000  0.711600  1.0  -0.0498
  C  C4321  1  0.155300  0.356800  0.618600  1.0  -0.0313
  C  C4322  1  0.235400  0.377200  0.640100  1.0  -0.0409
  C  C4323  1  0.250500  0.393800  0.687600  1.0  -0.0856
  C  C4324  1  0.222000  0.424500  0.657400  1.0  -0.0411
  C  C4325  1  0.668300  0.805700  0.705200  1.0  -0.055
  C  C4326  1  0.675800  0.773000  0.711600  1.0  -0.0498
  C  C4327  1  0.655300  0.856800  0.618600  1.0  -0.0313
  C  C4328  1  0.735400  0.877200  0.640100  1.0  -0.0409
  C  C4329  1  0.750500  0.893800  0.687600  1.0  -0.0856
  C  C4330  1  0.722000  0.924500  0.657400  1.0  -0.0411
  C  C4331  1  0.668300  0.305700  0.205200  1.0  -0.055
  C  C4332  1  0.675800  0.273000  0.211600  1.0  -0.0498
  C  C4333  1  0.655300  0.356800  0.118600  1.0  -0.0313
  C  C4334  1  0.735400  0.377200  0.140100  1.0  -0.0409
  C  C4335  1  0.750500  0.393800  0.187600  1.0  -0.0856
  C  C4336  1  0.722000  0.424500  0.157400  1.0  -0.0411
  C  C4337  1  0.081700  0.944300  0.705200  1.0  -0.0533
  C  C4338  1  0.074200  0.977000  0.711600  1.0  -0.0513
  C  C4339  1  0.094700  0.893200  0.618600  1.0  -0.026
  C  C4340  1  0.014600  0.872800  0.640100  1.0  -0.0387
  C  C4341  1  0.999500  0.856200  0.687600  1.0  -0.0862
  C  C4342  1  0.028000  0.825500  0.657400  1.0  -0.0407
  C  C4343  1  0.081700  0.444300  0.205200  1.0  -0.0533
  C  C4344  1  0.074200  0.477000  0.211600  1.0  -0.0513
  C  C4345  1  0.094700  0.393200  0.118600  1.0  -0.026
  C  C4346  1  0.014600  0.372800  0.140100  1.0  -0.0387
  C  C4347  1  0.999500  0.356200  0.187600  1.0  -0.0862
  C  C4348  1  0.028000  0.325500  0.157400  1.0  -0.0407
  C  C4349  1  0.581700  0.944300  0.205200  1.0  -0.0533
  C  C4350  1  0.574200  0.977000  0.211600  1.0  -0.0513
  C  C4351  1  0.594700  0.893200  0.118600  1.0  -0.0265
  C  C4352  1  0.514600  0.872800  0.140100  1.0  -0.0387
  C  C4353  1  0.499500  0.856200  0.187600  1.0  -0.0862
  C  C4354  1  0.528000  0.825500  0.157400  1.0  -0.0407
  C  C4355  1  0.581700  0.444300  0.705200  1.0  -0.0533
  C  C4356  1  0.574200  0.477000  0.711600  1.0  -0.0513
  C  C4357  1  0.594700  0.393200  0.618600  1.0  -0.0265
  C  C4358  1  0.514600  0.372800  0.640100  1.0  -0.0387
  C  C4359  1  0.499500  0.356200  0.687600  1.0  -0.0862
  C  C4360  1  0.528000  0.325500  0.657400  1.0  -0.0407
  C  C4361  1  0.944300  0.705200  0.081700  1.0  -0.0527
  C  C4362  1  0.977000  0.711600  0.074200  1.0  -0.0467
  C  C4363  1  0.893200  0.618600  0.094700  1.0  -0.0301
  C  C4364  1  0.872800  0.640100  0.014600  1.0  -0.0429
  C  C4365  1  0.856200  0.687600  0.999500  1.0  -0.0808
  C  C4366  1  0.825500  0.657400  0.028000  1.0  -0.0439
  C  C4367  1  0.944300  0.205200  0.581700  1.0  -0.0527
  C  C4368  1  0.977000  0.211600  0.574200  1.0  -0.0467
  C  C4369  1  0.893200  0.118600  0.594700  1.0  -0.0305
  C  C4370  1  0.872800  0.140100  0.514600  1.0  -0.0429
  C  C4371  1  0.856200  0.187600  0.499500  1.0  -0.0808
  C  C4372  1  0.825500  0.157400  0.528000  1.0  -0.0439
  C  C4373  1  0.444300  0.705200  0.581700  1.0  -0.0527
  C  C4374  1  0.477000  0.711600  0.574200  1.0  -0.0467
  C  C4375  1  0.393200  0.618600  0.594700  1.0  -0.0305
  C  C4376  1  0.372800  0.640100  0.514600  1.0  -0.0429
  C  C4377  1  0.356200  0.687600  0.499500  1.0  -0.0808
  C  C4378  1  0.325500  0.657400  0.528000  1.0  -0.0439
  C  C4379  1  0.444300  0.205200  0.081700  1.0  -0.0527
  C  C4380  1  0.477000  0.211600  0.074200  1.0  -0.0467
  C  C4381  1  0.393200  0.118600  0.094700  1.0  -0.0301
  C  C4382  1  0.372800  0.140100  0.014600  1.0  -0.0429
  C  C4383  1  0.356200  0.187600  0.999500  1.0  -0.0808
  C  C4384  1  0.325500  0.157400  0.028000  1.0  -0.0439
  C  C4385  1  0.805700  0.205200  0.168300  1.0  -0.053
  C  C4386  1  0.773000  0.211600  0.175800  1.0  -0.0451
  C  C4387  1  0.856800  0.118600  0.155300  1.0  -0.03
  C  C4388  1  0.877200  0.140100  0.235400  1.0  -0.042
  C  C4389  1  0.893800  0.187600  0.250500  1.0  -0.0836
  C  C4390  1  0.924500  0.157400  0.222000  1.0  -0.0452
  C  C4391  1  0.805700  0.705200  0.668300  1.0  -0.053
  C  C4392  1  0.773000  0.711600  0.675800  1.0  -0.0451
  C  C4393  1  0.856800  0.618600  0.655300  1.0  -0.03
  C  C4394  1  0.877200  0.640100  0.735400  1.0  -0.042
  C  C4395  1  0.893800  0.687600  0.750500  1.0  -0.0836
  C  C4396  1  0.924500  0.657400  0.722000  1.0  -0.0452
  C  C4397  1  0.305700  0.205200  0.668300  1.0  -0.053
  C  C4398  1  0.273000  0.211600  0.675800  1.0  -0.0451
  C  C4399  1  0.356800  0.118600  0.655300  1.0  -0.03
  C  C4400  1  0.377200  0.140100  0.735400  1.0  -0.042
  C  C4401  1  0.393800  0.187600  0.750500  1.0  -0.0836
  C  C4402  1  0.424500  0.157400  0.722000  1.0  -0.0452
  C  C4403  1  0.305700  0.705200  0.168300  1.0  -0.053
  C  C4404  1  0.273000  0.711600  0.175800  1.0  -0.0451
  C  C4405  1  0.356800  0.618600  0.155300  1.0  -0.03
  C  C4406  1  0.377200  0.640100  0.235400  1.0  -0.042
  C  C4407  1  0.393800  0.687600  0.250500  1.0  -0.0836
  C  C4408  1  0.424500  0.657400  0.222000  1.0  -0.0452
  C  C4409  1  0.305700  0.044800  0.581700  1.0  -0.053
  C  C4410  1  0.273000  0.038400  0.574200  1.0  -0.0472
  C  C4411  1  0.356800  0.131400  0.594700  1.0  -0.0285
  C  C4412  1  0.377200  0.109900  0.514600  1.0  -0.0432
  C  C4413  1  0.393800  0.062400  0.499500  1.0  -0.0816
  C  C4414  1  0.424500  0.092600  0.528000  1.0  -0.0449
  C  C4415  1  0.305700  0.544800  0.081700  1.0  -0.053
  C  C4416  1  0.273000  0.538400  0.074200  1.0  -0.0472
  C  C4417  1  0.356800  0.631400  0.094700  1.0  -0.0282
  C  C4418  1  0.377200  0.609900  0.014600  1.0  -0.0432
  C  C4419  1  0.393800  0.562400  0.999500  1.0  -0.0816
  C  C4420  1  0.424500  0.592600  0.028000  1.0  -0.0449
  C  C4421  1  0.805700  0.044800  0.081700  1.0  -0.053
  C  C4422  1  0.773000  0.038400  0.074200  1.0  -0.0472
  C  C4423  1  0.856800  0.131400  0.094700  1.0  -0.0282
  C  C4424  1  0.877200  0.109900  0.014600  1.0  -0.0432
  C  C4425  1  0.893800  0.062400  0.999500  1.0  -0.0816
  C  C4426  1  0.924500  0.092600  0.028000  1.0  -0.0449
  C  C4427  1  0.805700  0.544800  0.581700  1.0  -0.053
  C  C4428  1  0.773000  0.538400  0.574200  1.0  -0.0472
  C  C4429  1  0.856800  0.631400  0.594700  1.0  -0.0285
  C  C4430  1  0.877200  0.609900  0.514600  1.0  -0.0432
  C  C4431  1  0.893800  0.562400  0.499500  1.0  -0.0816
  C  C4432  1  0.924500  0.592600  0.528000  1.0  -0.0449
  C  C4433  1  0.444300  0.544800  0.668300  1.0  -0.0543
  C  C4434  1  0.477000  0.538400  0.675800  1.0  -0.0469
  C  C4435  1  0.393200  0.631400  0.655300  1.0  -0.0325
  C  C4436  1  0.372800  0.609900  0.735400  1.0  -0.0425
  C  C4437  1  0.356200  0.562400  0.750500  1.0  -0.0809
  C  C4438  1  0.325500  0.592600  0.722000  1.0  -0.0429
  C  C4439  1  0.444300  0.044800  0.168300  1.0  -0.0543
  C  C4440  1  0.477000  0.038400  0.175800  1.0  -0.0469
  C  C4441  1  0.393200  0.131400  0.155300  1.0  -0.0325
  C  C4442  1  0.372800  0.109900  0.235400  1.0  -0.0425
  C  C4443  1  0.356200  0.062400  0.250500  1.0  -0.0809
  C  C4444  1  0.325500  0.092600  0.222000  1.0  -0.0429
  C  C4445  1  0.944300  0.544800  0.168300  1.0  -0.0543
  C  C4446  1  0.977000  0.538400  0.175800  1.0  -0.0469
  C  C4447  1  0.893200  0.631400  0.155300  1.0  -0.0325
  C  C4448  1  0.872800  0.609900  0.235400  1.0  -0.0425
  C  C4449  1  0.856200  0.562400  0.250500  1.0  -0.0809
  C  C4450  1  0.825500  0.592600  0.222000  1.0  -0.0429
  C  C4451  1  0.944300  0.044800  0.668300  1.0  -0.0543
  C  C4452  1  0.977000  0.038400  0.675800  1.0  -0.0469
  C  C4453  1  0.893200  0.131400  0.655300  1.0  -0.0325
  C  C4454  1  0.872800  0.109900  0.735400  1.0  -0.0425
  C  C4455  1  0.856200  0.062400  0.750500  1.0  -0.0809
  C  C4456  1  0.825500  0.092600  0.722000  1.0  -0.0429
  C  C4457  1  0.205200  0.168300  0.805700  1.0  -0.0535
  C  C4458  1  0.211600  0.175800  0.773000  1.0  -0.0521
  C  C4459  1  0.118600  0.155300  0.856800  1.0  -0.0284
  C  C4460  1  0.140100  0.235400  0.877200  1.0  -0.0416
  C  C4461  1  0.187600  0.250500  0.893800  1.0  -0.0888
  C  C4462  1  0.157400  0.222000  0.924500  1.0  -0.0413
  C  C4463  1  0.205200  0.668300  0.305700  1.0  -0.0535
  C  C4464  1  0.211600  0.675800  0.273000  1.0  -0.0521
  C  C4465  1  0.118600  0.655300  0.356800  1.0  -0.0284
  C  C4466  1  0.140100  0.735400  0.377200  1.0  -0.0416
  C  C4467  1  0.187600  0.750500  0.393800  1.0  -0.0888
  C  C4468  1  0.157400  0.722000  0.424500  1.0  -0.0413
  C  C4469  1  0.705200  0.168300  0.305700  1.0  -0.0535
  C  C4470  1  0.711600  0.175800  0.273000  1.0  -0.0521
  C  C4471  1  0.618600  0.155300  0.356800  1.0  -0.0284
  C  C4472  1  0.640100  0.235400  0.377200  1.0  -0.0416
  C  C4473  1  0.687600  0.250500  0.393800  1.0  -0.0888
  C  C4474  1  0.657400  0.222000  0.424500  1.0  -0.0413
  C  C4475  1  0.705200  0.668300  0.805700  1.0  -0.0535
  C  C4476  1  0.711600  0.675800  0.773000  1.0  -0.0521
  C  C4477  1  0.618600  0.655300  0.856800  1.0  -0.0284
  C  C4478  1  0.640100  0.735400  0.877200  1.0  -0.0416
  C  C4479  1  0.687600  0.750500  0.893800  1.0  -0.0888
  C  C4480  1  0.657400  0.722000  0.924500  1.0  -0.0413
  C  C4481  1  0.705200  0.081700  0.944300  1.0  -0.0553
  C  C4482  1  0.711600  0.074200  0.977000  1.0  -0.0539
  C  C4483  1  0.618600  0.094700  0.893200  1.0  -0.0298
  C  C4484  1  0.640100  0.014600  0.872800  1.0  -0.0423
  C  C4485  1  0.687600  0.999500  0.856200  1.0  -0.0885
  C  C4486  1  0.657400  0.028000  0.825500  1.0  -0.0428
  C  C4487  1  0.705200  0.581700  0.444300  1.0  -0.0553
  C  C4488  1  0.711600  0.574200  0.477000  1.0  -0.0539
  C  C4489  1  0.618600  0.594700  0.393200  1.0  -0.0303
  C  C4490  1  0.640100  0.514600  0.372800  1.0  -0.0423
  C  C4491  1  0.687600  0.499500  0.356200  1.0  -0.0885
  C  C4492  1  0.657400  0.528000  0.325500  1.0  -0.0428
  C  C4493  1  0.205200  0.081700  0.444300  1.0  -0.0553
  C  C4494  1  0.211600  0.074200  0.477000  1.0  -0.0539
  C  C4495  1  0.118600  0.094700  0.393200  1.0  -0.0298
  C  C4496  1  0.140100  0.014600  0.372800  1.0  -0.0423
  C  C4497  1  0.187600  0.999500  0.356200  1.0  -0.0885
  C  C4498  1  0.157400  0.028000  0.325500  1.0  -0.0428
  C  C4499  1  0.205200  0.581700  0.944300  1.0  -0.0553
  C  C4500  1  0.211600  0.574200  0.977000  1.0  -0.0539
  C  C4501  1  0.118600  0.594700  0.893200  1.0  -0.0303
  C  C4502  1  0.140100  0.514600  0.872800  1.0  -0.0423
  C  C4503  1  0.187600  0.499500  0.856200  1.0  -0.0885
  C  C4504  1  0.157400  0.528000  0.825500  1.0  -0.0428
  C  C4505  1  0.544800  0.668300  0.444300  1.0  -0.0546
  C  C4506  1  0.538400  0.675800  0.477000  1.0  -0.0514
  C  C4507  1  0.631400  0.655300  0.393200  1.0  -0.0327
  C  C4508  1  0.609900  0.735400  0.372800  1.0  -0.0432
  C  C4509  1  0.562400  0.750500  0.356200  1.0  -0.0878
  C  C4510  1  0.592600  0.722000  0.325500  1.0  -0.0435
  C  C4511  1  0.544800  0.168300  0.944300  1.0  -0.0546
  C  C4512  1  0.538400  0.175800  0.977000  1.0  -0.0514
  C  C4513  1  0.631400  0.155300  0.893200  1.0  -0.0327
  C  C4514  1  0.609900  0.235400  0.872800  1.0  -0.0432
  C  C4515  1  0.562400  0.250500  0.856200  1.0  -0.0878
  C  C4516  1  0.592600  0.222000  0.825500  1.0  -0.0435
  C  C4517  1  0.044800  0.668300  0.944300  1.0  -0.0546
  C  C4518  1  0.038400  0.675800  0.977000  1.0  -0.0514
  C  C4519  1  0.131400  0.655300  0.893200  1.0  -0.0327
  C  C4520  1  0.109900  0.735400  0.872800  1.0  -0.0432
  C  C4521  1  0.062400  0.750500  0.856200  1.0  -0.0878
  C  C4522  1  0.092600  0.722000  0.825500  1.0  -0.0435
  C  C4523  1  0.044800  0.168300  0.444300  1.0  -0.0546
  C  C4524  1  0.038400  0.175800  0.477000  1.0  -0.0514
  C  C4525  1  0.131400  0.155300  0.393200  1.0  -0.0327
  C  C4526  1  0.109900  0.235400  0.372800  1.0  -0.0432
  C  C4527  1  0.062400  0.250500  0.356200  1.0  -0.0878
  C  C4528  1  0.092600  0.222000  0.325500  1.0  -0.0435
  C  C4529  1  0.044800  0.581700  0.305700  1.0  -0.0552
  C  C4530  1  0.038400  0.574200  0.273000  1.0  -0.0519
  C  C4531  1  0.131400  0.594700  0.356800  1.0  -0.033
  C  C4532  1  0.109900  0.514600  0.377200  1.0  -0.0431
  C  C4533  1  0.062400  0.499500  0.393800  1.0  -0.0868
  C  C4534  1  0.092600  0.528000  0.424500  1.0  -0.0432
  C  C4535  1  0.044800  0.081700  0.805700  1.0  -0.0552
  C  C4536  1  0.038400  0.074200  0.773000  1.0  -0.0519
  C  C4537  1  0.131400  0.094700  0.856800  1.0  -0.0325
  C  C4538  1  0.109900  0.014600  0.877200  1.0  -0.0431
  C  C4539  1  0.062400  0.999500  0.893800  1.0  -0.0868
  C  C4540  1  0.092600  0.028000  0.924500  1.0  -0.0432
  C  C4541  1  0.544800  0.581700  0.805700  1.0  -0.0552
  C  C4542  1  0.538400  0.574200  0.773000  1.0  -0.0519
  C  C4543  1  0.631400  0.594700  0.856800  1.0  -0.033
  C  C4544  1  0.609900  0.514600  0.877200  1.0  -0.0431
  C  C4545  1  0.562400  0.499500  0.893800  1.0  -0.0868
  C  C4546  1  0.592600  0.528000  0.924500  1.0  -0.0432
  C  C4547  1  0.544800  0.081700  0.305700  1.0  -0.0552
  C  C4548  1  0.538400  0.074200  0.273000  1.0  -0.0519
  C  C4549  1  0.631400  0.094700  0.356800  1.0  -0.0325
  C  C4550  1  0.609900  0.014600  0.377200  1.0  -0.0431
  C  C4551  1  0.562400  0.999500  0.393800  1.0  -0.0868
  C  C4552  1  0.592600  0.028000  0.424500  1.0  -0.0432
  C  C4553  1  0.173500  0.613700  0.076500  1.0  -0.0764
  C  C4554  1  0.193500  0.593400  0.056500  1.0  -0.0697
  C  C4555  1  0.173500  0.113700  0.576500  1.0  -0.0764
  C  C4556  1  0.193500  0.093400  0.556500  1.0  -0.0697
  C  C4557  1  0.673500  0.113700  0.076500  1.0  -0.076
  C  C4558  1  0.693500  0.093400  0.056500  1.0  -0.0697
  C  C4559  1  0.576500  0.636300  0.576500  1.0  -0.0762
  C  C4560  1  0.556500  0.656600  0.556500  1.0  -0.07
  C  C4561  1  0.576500  0.136300  0.076500  1.0  -0.0763
  C  C4562  1  0.556500  0.156600  0.056500  1.0  -0.07
  C  C4563  1  0.076500  0.636300  0.076500  1.0  -0.0762
  C  C4564  1  0.056500  0.656600  0.056500  1.0  -0.07
  C  C4565  1  0.076500  0.136300  0.576500  1.0  -0.0763
  C  C4566  1  0.056500  0.156600  0.556500  1.0  -0.07
  C  C4567  1  0.076500  0.113700  0.673500  1.0  -0.0788
  C  C4568  1  0.056500  0.093400  0.693500  1.0  -0.0728
  C  C4569  1  0.576500  0.113700  0.173500  1.0  -0.0792
  C  C4570  1  0.556500  0.093400  0.193500  1.0  -0.0728
  C  C4571  1  0.673500  0.136300  0.173500  1.0  -0.0738
  C  C4572  1  0.693500  0.156600  0.193500  1.0  -0.0706
  C  C4573  1  0.673500  0.636300  0.673500  1.0  -0.0736
  C  C4574  1  0.693500  0.656600  0.693500  1.0  -0.0706
  C  C4575  1  0.076500  0.173500  0.613700  1.0  -0.0748
  C  C4576  1  0.056500  0.193500  0.593400  1.0  -0.0724
  C  C4577  1  0.076500  0.673500  0.113700  1.0  -0.0746
  C  C4578  1  0.056500  0.693500  0.093400  1.0  -0.0724
  C  C4579  1  0.576500  0.173500  0.113700  1.0  -0.0738
  C  C4580  1  0.556500  0.193500  0.093400  1.0  -0.0724
  C  C4581  1  0.576500  0.576500  0.636300  1.0  -0.0738
  C  C4582  1  0.556500  0.556500  0.656600  1.0  -0.0703
  C  C4583  1  0.576500  0.076500  0.136300  1.0  -0.0727
  C  C4584  1  0.556500  0.056500  0.156600  1.0  -0.0694
  C  C4585  1  0.076500  0.576500  0.136300  1.0  -0.0738
  C  C4586  1  0.056500  0.556500  0.156600  1.0  -0.0703
  C  C4587  1  0.076500  0.076500  0.636300  1.0  -0.0737
  C  C4588  1  0.056500  0.056500  0.656600  1.0  -0.0694
  C  C4589  1  0.673500  0.076500  0.113700  1.0  -0.0722
  C  C4590  1  0.693500  0.056500  0.093400  1.0  -0.0706
  C  C4591  1  0.673500  0.576500  0.613700  1.0  -0.0725
  C  C4592  1  0.693500  0.556500  0.593400  1.0  -0.0715
  C  C4593  1  0.173500  0.673500  0.136300  1.0  -0.074
  C  C4594  1  0.193500  0.693500  0.156600  1.0  -0.0675
  C  C4595  1  0.173500  0.173500  0.636300  1.0  -0.074
  C  C4596  1  0.193500  0.193500  0.656600  1.0  -0.0675
  C  C4597  1  0.673500  0.673500  0.636300  1.0  -0.0739
  C  C4598  1  0.693500  0.693500  0.656600  1.0  -0.0666
  C  C4599  1  0.613700  0.076500  0.173500  1.0  -0.0759
  C  C4600  1  0.593400  0.056500  0.193500  1.0  -0.0722
  C  C4601  1  0.613700  0.576500  0.673500  1.0  -0.0756
  C  C4602  1  0.593400  0.556500  0.693500  1.0  -0.0724
  C  C4603  1  0.113700  0.076500  0.673500  1.0  -0.0743
  C  C4604  1  0.093400  0.056500  0.693500  1.0  -0.0722
  C  C4605  1  0.636300  0.576500  0.576500  1.0  -0.076
  C  C4606  1  0.656600  0.556500  0.556500  1.0  -0.0713
  C  C4607  1  0.636300  0.076500  0.076500  1.0  -0.0761
  C  C4608  1  0.656600  0.056500  0.056500  1.0  -0.0712
  C  C4609  1  0.136300  0.576500  0.076500  1.0  -0.0756
  C  C4610  1  0.156600  0.556500  0.056500  1.0  -0.0713
  C  C4611  1  0.136300  0.076500  0.576500  1.0  -0.0756
  C  C4612  1  0.156600  0.056500  0.556500  1.0  -0.0713
  C  C4613  1  0.113700  0.673500  0.076500  1.0  -0.0744
  C  C4614  1  0.093400  0.693500  0.056500  1.0  -0.0699
  C  C4615  1  0.113700  0.173500  0.576500  1.0  -0.0744
  C  C4616  1  0.093400  0.193500  0.556500  1.0  -0.0699
  C  C4617  1  0.136300  0.173500  0.673500  1.0  -0.0755
  C  C4618  1  0.156600  0.193500  0.693500  1.0  -0.0723
  C  C4619  1  0.636300  0.173500  0.173500  1.0  -0.0767
  C  C4620  1  0.656600  0.193500  0.193500  1.0  -0.0723
  C  C4621  1  0.636300  0.673500  0.673500  1.0  -0.0769
  C  C4622  1  0.656600  0.693500  0.693500  1.0  -0.0721
  C  C4623  1  0.363700  0.423500  0.423500  1.0  -0.0746
  C  C4624  1  0.343400  0.443500  0.443500  1.0  -0.0724
  C  C4625  1  0.363700  0.923500  0.923500  1.0  -0.0746
  C  C4626  1  0.343400  0.943500  0.943500  1.0  -0.0724
  C  C4627  1  0.863700  0.423500  0.923500  1.0  -0.0746
  C  C4628  1  0.843400  0.443500  0.943500  1.0  -0.0724
  C  C4629  1  0.863700  0.923500  0.423500  1.0  -0.0751
  C  C4630  1  0.843400  0.943500  0.443500  1.0  -0.0724
  C  C4631  1  0.386300  0.826500  0.923500  1.0  -0.0758
  C  C4632  1  0.406600  0.806500  0.943500  1.0  -0.0733
  C  C4633  1  0.386300  0.326500  0.423500  1.0  -0.0758
  C  C4634  1  0.406600  0.306500  0.443500  1.0  -0.0733
  C  C4635  1  0.863700  0.326500  0.826500  1.0  -0.076
  C  C4636  1  0.843400  0.306500  0.806500  1.0  -0.0722
  C  C4637  1  0.363700  0.326500  0.326500  1.0  -0.0761
  C  C4638  1  0.343400  0.306500  0.306500  1.0  -0.0722
  C  C4639  1  0.363700  0.826500  0.826500  1.0  -0.0761
  C  C4640  1  0.343400  0.806500  0.806500  1.0  -0.0722
  C  C4641  1  0.886300  0.923500  0.326500  1.0  -0.0765
  C  C4642  1  0.906600  0.943500  0.306500  1.0  -0.0723
  C  C4643  1  0.886300  0.423500  0.826500  1.0  -0.0765
  C  C4644  1  0.906600  0.443500  0.806500  1.0  -0.0723
  C  C4645  1  0.923500  0.326500  0.886300  1.0  -0.0732
  C  C4646  1  0.943500  0.306500  0.906600  1.0  -0.0696
  C  C4647  1  0.423500  0.326500  0.386300  1.0  -0.0731
  C  C4648  1  0.443500  0.306500  0.406600  1.0  -0.0687
  C  C4649  1  0.326500  0.826500  0.863700  1.0  -0.0739
  C  C4650  1  0.306500  0.806500  0.843400  1.0  -0.072
  C  C4651  1  0.326500  0.326500  0.363700  1.0  -0.074
  C  C4652  1  0.306500  0.306500  0.343400  1.0  -0.072
  C  C4653  1  0.826500  0.826500  0.363700  1.0  -0.0739
  C  C4654  1  0.806500  0.806500  0.343400  1.0  -0.073
  C  C4655  1  0.826500  0.923500  0.386300  1.0  -0.0741
  C  C4656  1  0.806500  0.943500  0.406600  1.0  -0.0678
  C  C4657  1  0.826500  0.423500  0.886300  1.0  -0.0731
  C  C4658  1  0.806500  0.443500  0.906600  1.0  -0.0678
  C  C4659  1  0.423500  0.423500  0.363700  1.0  -0.0735
  C  C4660  1  0.443500  0.443500  0.343400  1.0  -0.0715
  C  C4661  1  0.423500  0.923500  0.863700  1.0  -0.0735
  C  C4662  1  0.443500  0.943500  0.843400  1.0  -0.0715
  C  C4663  1  0.923500  0.423500  0.863700  1.0  -0.0723
  C  C4664  1  0.943500  0.443500  0.843400  1.0  -0.0706
  C  C4665  1  0.923500  0.923500  0.363700  1.0  -0.0731
  C  C4666  1  0.943500  0.943500  0.343400  1.0  -0.0706
  C  C4667  1  0.826500  0.863700  0.326500  1.0  -0.0755
  C  C4668  1  0.806500  0.843400  0.306500  1.0  -0.0688
  C  C4669  1  0.826500  0.363700  0.826500  1.0  -0.0765
  C  C4670  1  0.806500  0.343400  0.806500  1.0  -0.0688
  C  C4671  1  0.326500  0.886300  0.923500  1.0  -0.0746
  C  C4672  1  0.306500  0.906600  0.943500  1.0  -0.0706
  C  C4673  1  0.326500  0.386300  0.423500  1.0  -0.0746
  C  C4674  1  0.306500  0.406600  0.443500  1.0  -0.0706
  C  C4675  1  0.423500  0.363700  0.423500  1.0  -0.0783
  C  C4676  1  0.443500  0.343400  0.443500  1.0  -0.0705
  C  C4677  1  0.423500  0.863700  0.923500  1.0  -0.0778
  C  C4678  1  0.443500  0.843400  0.943500  1.0  -0.0707
  C  C4679  1  0.923500  0.363700  0.923500  1.0  -0.0778
  C  C4680  1  0.943500  0.343400  0.943500  1.0  -0.0707
  C  C4681  1  0.923500  0.863700  0.423500  1.0  -0.0782
  C  C4682  1  0.943500  0.843400  0.443500  1.0  -0.0718
  C  C4683  1  0.923500  0.386300  0.826500  1.0  -0.0755
  C  C4684  1  0.943500  0.406600  0.806500  1.0  -0.0683
  C  C4685  1  0.423500  0.386300  0.326500  1.0  -0.0753
  C  C4686  1  0.443500  0.406600  0.306500  1.0  -0.0685
  C  C4687  1  0.826500  0.386300  0.923500  1.0  -0.0749
  C  C4688  1  0.806500  0.406600  0.943500  1.0  -0.0704
  C  C4689  1  0.826500  0.886300  0.423500  1.0  -0.0736
  C  C4690  1  0.806500  0.906600  0.443500  1.0  -0.0704
  C  C4691  1  0.923500  0.886300  0.326500  1.0  -0.0741
  C  C4692  1  0.943500  0.906600  0.306500  1.0  -0.0683
  C  C4693  1  0.423500  0.886300  0.826500  1.0  -0.0741
  C  C4694  1  0.443500  0.906600  0.806500  1.0  -0.0685
  C  C4695  1  0.326500  0.863700  0.826500  1.0  -0.0755
  C  C4696  1  0.306500  0.843400  0.806500  1.0  -0.0686
  C  C4697  1  0.326500  0.363700  0.326500  1.0  -0.0755
  C  C4698  1  0.306500  0.343400  0.306500  1.0  -0.0686
  C  C4699  1  0.923500  0.826500  0.386300  1.0  -0.0731
  C  C4700  1  0.943500  0.806500  0.406600  1.0  -0.0687
  C  C4701  1  0.423500  0.826500  0.886300  1.0  -0.0721
  C  C4702  1  0.443500  0.806500  0.906600  1.0  -0.0686
  C  C4703  1  0.326500  0.923500  0.886300  1.0  -0.0743
  C  C4704  1  0.306500  0.943500  0.906600  1.0  -0.0677
  C  C4705  1  0.326500  0.423500  0.386300  1.0  -0.0743
  C  C4706  1  0.306500  0.443500  0.406600  1.0  -0.0677
  C  C4707  1  0.826500  0.326500  0.863700  1.0  -0.073
  C  C4708  1  0.806500  0.306500  0.843400  1.0  -0.0717
  C  C4709  1  0.386300  0.923500  0.826500  1.0  -0.0766
  C  C4710  1  0.406600  0.943500  0.806500  1.0  -0.0711
  C  C4711  1  0.386300  0.423500  0.326500  1.0  -0.0766
  C  C4712  1  0.406600  0.443500  0.306500  1.0  -0.0711
  C  C4713  1  0.886300  0.326500  0.923500  1.0  -0.0759
  C  C4714  1  0.906600  0.306500  0.943500  1.0  -0.072
  C  C4715  1  0.886300  0.826500  0.423500  1.0  -0.0745
  C  C4716  1  0.906600  0.806500  0.443500  1.0  -0.072
  C  C4717  1  0.863700  0.826500  0.326500  1.0  -0.0746
  C  C4718  1  0.843400  0.806500  0.306500  1.0  -0.0709
  C  C4719  1  0.613700  0.173500  0.076500  1.0  -0.0745
  C  C4720  1  0.593400  0.193500  0.056500  1.0  -0.0699
  C  C4721  1  0.613700  0.673500  0.576500  1.0  -0.0743
  C  C4722  1  0.593400  0.693500  0.556500  1.0  -0.0701
  C  C4723  1  0.136300  0.673500  0.173500  1.0  -0.0755
  C  C4724  1  0.156600  0.693500  0.193500  1.0  -0.0723
  C  C4725  1  0.113700  0.576500  0.173500  1.0  -0.0745
  C  C4726  1  0.093400  0.556500  0.193500  1.0  -0.0724
  C  C4727  1  0.576500  0.673500  0.613700  1.0  -0.0752
  C  C4728  1  0.556500  0.693500  0.593400  1.0  -0.0722
  C  C4729  1  0.673500  0.173500  0.136300  1.0  -0.0729
  C  C4730  1  0.693500  0.193500  0.156600  1.0  -0.0665
  C  C4731  1  0.173500  0.076500  0.613700  1.0  -0.0727
  C  C4732  1  0.193500  0.056500  0.593400  1.0  -0.0704
  C  C4733  1  0.173500  0.576500  0.113700  1.0  -0.0713
  C  C4734  1  0.193500  0.556500  0.093400  1.0  -0.0704
  C  C4735  1  0.173500  0.136300  0.673500  1.0  -0.0726
  C  C4736  1  0.193500  0.156600  0.693500  1.0  -0.0692
  C  C4737  1  0.173500  0.636300  0.173500  1.0  -0.0739
  C  C4738  1  0.193500  0.656600  0.193500  1.0  -0.0692
  C  C4739  1  0.673500  0.613700  0.576500  1.0  -0.0765
  C  C4740  1  0.693500  0.593400  0.556500  1.0  -0.0684
  C  C4741  1  0.076500  0.613700  0.173500  1.0  -0.0793
  C  C4742  1  0.056500  0.593400  0.193500  1.0  -0.0716
  C  C4743  1  0.576500  0.613700  0.673500  1.0  -0.0793
  C  C4744  1  0.556500  0.593400  0.693500  1.0  -0.0716
  C  C4745  1  0.286800  0.525600  0.025600  1.0  0.0106
  C  C4746  1  0.319300  0.533100  0.033100  1.0  0.013
  C  C4747  1  0.402700  0.613600  0.113600  1.0  -0.0528
  C  C4748  1  0.786800  0.525600  0.525600  1.0  0.0106
  C  C4749  1  0.819300  0.533100  0.533100  1.0  0.013
  C  C4750  1  0.902700  0.613600  0.613600  1.0  -0.0528
  C  C4751  1  0.463200  0.724400  0.525600  1.0  0.0105
  C  C4752  1  0.430700  0.716900  0.533100  1.0  0.0148
  C  C4753  1  0.347300  0.636400  0.613600  1.0  -0.0496
  C  C4754  1  0.463200  0.224400  0.025600  1.0  0.0105
  C  C4755  1  0.430700  0.216900  0.033100  1.0  0.0148
  C  C4756  1  0.347300  0.136400  0.113600  1.0  -0.0496
  C  C4757  1  0.963200  0.025600  0.724400  1.0  0.0078
  C  C4758  1  0.930700  0.033100  0.716900  1.0  0.0135
  C  C4759  1  0.847300  0.113600  0.636400  1.0  -0.0501
  C  C4760  1  0.963200  0.525600  0.224400  1.0  0.0078
  C  C4761  1  0.930700  0.533100  0.216900  1.0  0.0135
  C  C4762  1  0.847300  0.613600  0.136400  1.0  -0.0501
  C  C4763  1  0.786800  0.224400  0.224400  1.0  0.0079
  C  C4764  1  0.819300  0.216900  0.216900  1.0  0.0121
  C  C4765  1  0.902700  0.136400  0.136400  1.0  -0.051
  C  C4766  1  0.786800  0.724400  0.724400  1.0  0.0079
  C  C4767  1  0.819300  0.716900  0.716900  1.0  0.0121
  C  C4768  1  0.902700  0.636400  0.636400  1.0  -0.051
  C  C4769  1  0.286800  0.224400  0.724400  1.0  0.0079
  C  C4770  1  0.319300  0.216900  0.716900  1.0  0.0121
  C  C4771  1  0.402700  0.136400  0.636400  1.0  -0.051
  C  C4772  1  0.286800  0.724400  0.224400  1.0  0.0079
  C  C4773  1  0.319300  0.716900  0.216900  1.0  0.0121
  C  C4774  1  0.402700  0.636400  0.136400  1.0  -0.051
  C  C4775  1  0.025600  0.286800  0.525600  1.0  0.0117
  C  C4776  1  0.033100  0.319300  0.533100  1.0  0.0146
  C  C4777  1  0.113600  0.402700  0.613600  1.0  -0.0504
  C  C4778  1  0.025600  0.786800  0.025600  1.0  0.0117
  C  C4779  1  0.033100  0.819300  0.033100  1.0  0.0146
  C  C4780  1  0.113600  0.902700  0.113600  1.0  -0.0504
  C  C4781  1  0.525600  0.786800  0.525600  1.0  0.0117
  C  C4782  1  0.533100  0.819300  0.533100  1.0  0.0146
  C  C4783  1  0.613600  0.902700  0.613600  1.0  -0.0504
  C  C4784  1  0.525600  0.463200  0.724400  1.0  0.0104
  C  C4785  1  0.533100  0.430700  0.716900  1.0  0.0142
  C  C4786  1  0.613600  0.347300  0.636400  1.0  -0.05
  C  C4787  1  0.525600  0.963200  0.224400  1.0  0.0104
  C  C4788  1  0.533100  0.930700  0.216900  1.0  0.0142
  C  C4789  1  0.613600  0.847300  0.136400  1.0  -0.05
  C  C4790  1  0.724400  0.963200  0.025600  1.0  0.0117
  C  C4791  1  0.716900  0.930700  0.033100  1.0  0.0146
  C  C4792  1  0.636400  0.847300  0.113600  1.0  -0.0507
  C  C4793  1  0.224400  0.963200  0.525600  1.0  0.0117
  C  C4794  1  0.216900  0.930700  0.533100  1.0  0.0146
  C  C4795  1  0.136400  0.847300  0.613600  1.0  -0.0507
  C  C4796  1  0.224400  0.786800  0.224400  1.0  0.01
  C  C4797  1  0.216900  0.819300  0.216900  1.0  0.0151
  C  C4798  1  0.136400  0.902700  0.136400  1.0  -0.0499
  C  C4799  1  0.224400  0.286800  0.724400  1.0  0.01
  C  C4800  1  0.216900  0.319300  0.716900  1.0  0.0151
  C  C4801  1  0.136400  0.402700  0.636400  1.0  -0.0499
  C  C4802  1  0.724400  0.786800  0.724400  1.0  0.01
  C  C4803  1  0.716900  0.819300  0.716900  1.0  0.0151
  C  C4804  1  0.636400  0.902700  0.636400  1.0  -0.0499
  C  C4805  1  0.724400  0.286800  0.224400  1.0  0.01
  C  C4806  1  0.716900  0.319300  0.216900  1.0  0.0151
  C  C4807  1  0.636400  0.402700  0.136400  1.0  -0.0499
  C  C4808  1  0.525600  0.025600  0.286800  1.0  0.0109
  C  C4809  1  0.533100  0.033100  0.319300  1.0  0.0108
  C  C4810  1  0.613600  0.113600  0.402700  1.0  -0.0522
  C  C4811  1  0.525600  0.525600  0.786800  1.0  0.0109
  C  C4812  1  0.533100  0.533100  0.819300  1.0  0.0108
  C  C4813  1  0.613600  0.613600  0.902700  1.0  -0.0522
  C  C4814  1  0.724400  0.525600  0.463200  1.0  0.0094
  C  C4815  1  0.716900  0.533100  0.430700  1.0  0.0112
  C  C4816  1  0.636400  0.613600  0.347300  1.0  -0.0538
  C  C4817  1  0.224400  0.525600  0.963200  1.0  0.0094
  C  C4818  1  0.216900  0.533100  0.930700  1.0  0.0112
  C  C4819  1  0.136400  0.613600  0.847300  1.0  -0.0538
  C  C4820  1  0.025600  0.724400  0.963200  1.0  0.01
  C  C4821  1  0.033100  0.716900  0.930700  1.0  0.0106
  C  C4822  1  0.113600  0.636400  0.847300  1.0  -0.0517
  C  C4823  1  0.025600  0.224400  0.463200  1.0  0.01
  C  C4824  1  0.033100  0.216900  0.430700  1.0  0.0106
  C  C4825  1  0.113600  0.136400  0.347300  1.0  -0.0517
  C  C4826  1  0.224400  0.224400  0.786800  1.0  0.0094
  C  C4827  1  0.216900  0.216900  0.819300  1.0  0.0106
  C  C4828  1  0.136400  0.136400  0.902700  1.0  -0.0521
  C  C4829  1  0.224400  0.724400  0.286800  1.0  0.0094
  C  C4830  1  0.216900  0.716900  0.319300  1.0  0.0106
  C  C4831  1  0.136400  0.636400  0.402700  1.0  -0.0521
  C  C4832  1  0.724400  0.224400  0.286800  1.0  0.0094
  C  C4833  1  0.716900  0.216900  0.319300  1.0  0.0106
  C  C4834  1  0.636400  0.136400  0.402700  1.0  -0.0521
  C  C4835  1  0.724400  0.724400  0.786800  1.0  0.0094
  C  C4836  1  0.716900  0.716900  0.819300  1.0  0.0106
  C  C4837  1  0.636400  0.636400  0.902700  1.0  -0.0521
  C  C4838  1  0.275600  0.536800  0.474400  1.0  0.0103
  C  C4839  1  0.283100  0.569300  0.466900  1.0  0.0143
  C  C4840  1  0.363600  0.652700  0.386400  1.0  -0.0511
  C  C4841  1  0.775600  0.536800  0.974400  1.0  0.0103
  C  C4842  1  0.783100  0.569300  0.966900  1.0  0.0143
  C  C4843  1  0.863600  0.652700  0.886400  1.0  -0.0511
  C  C4844  1  0.474400  0.713200  0.974400  1.0  0.011
  C  C4845  1  0.466900  0.680700  0.966900  1.0  0.0149
  C  C4846  1  0.386400  0.597300  0.886400  1.0  -0.0508
  C  C4847  1  0.474400  0.213200  0.474400  1.0  0.011
  C  C4848  1  0.466900  0.180700  0.466900  1.0  0.0149
  C  C4849  1  0.386400  0.097300  0.386400  1.0  -0.0508
  C  C4850  1  0.974400  0.213200  0.974400  1.0  0.011
  C  C4851  1  0.966900  0.180700  0.966900  1.0  0.0149
  C  C4852  1  0.886400  0.097300  0.886400  1.0  -0.0508
  C  C4853  1  0.775600  0.213200  0.775600  1.0  0.0106
  C  C4854  1  0.783100  0.180700  0.783100  1.0  0.0147
  C  C4855  1  0.863600  0.097300  0.863600  1.0  -0.0479
  C  C4856  1  0.775600  0.713200  0.275600  1.0  0.0106
  C  C4857  1  0.783100  0.680700  0.283100  1.0  0.0147
  C  C4858  1  0.863600  0.597300  0.363600  1.0  -0.0479
  C  C4859  1  0.275600  0.213200  0.275600  1.0  0.0106
  C  C4860  1  0.283100  0.180700  0.283100  1.0  0.0147
  C  C4861  1  0.363600  0.097300  0.363600  1.0  -0.0479
  C  C4862  1  0.275600  0.713200  0.775600  1.0  0.0106
  C  C4863  1  0.283100  0.680700  0.783100  1.0  0.0147
  C  C4864  1  0.363600  0.597300  0.863600  1.0  -0.0479
  C  C4865  1  0.974400  0.036800  0.275600  1.0  0.0121
  C  C4866  1  0.966900  0.069300  0.283100  1.0  0.0153
  C  C4867  1  0.886400  0.152700  0.363600  1.0  -0.0506
  C  C4868  1  0.974400  0.536800  0.775600  1.0  0.0121
  C  C4869  1  0.966900  0.569300  0.783100  1.0  0.0153
  C  C4870  1  0.886400  0.652700  0.863600  1.0  -0.0506
  C  C4871  1  0.036800  0.275600  0.974400  1.0  0.0095
  C  C4872  1  0.069300  0.283100  0.966900  1.0  0.0126
  C  C4873  1  0.152700  0.363600  0.886400  1.0  -0.0532
  C  C4874  1  0.036800  0.775600  0.474400  1.0  0.0095
  C  C4875  1  0.069300  0.783100  0.466900  1.0  0.0126
  C  C4876  1  0.152700  0.863600  0.386400  1.0  -0.0532
  C  C4877  1  0.213200  0.775600  0.775600  1.0  0.0095
  C  C4878  1  0.180700  0.783100  0.783100  1.0  0.0135
  C  C4879  1  0.097300  0.863600  0.863600  1.0  -0.0505
  C  C4880  1  0.213200  0.275600  0.275600  1.0  0.0095
  C  C4881  1  0.180700  0.283100  0.283100  1.0  0.0135
  C  C4882  1  0.097300  0.363600  0.363600  1.0  -0.0505
  C  C4883  1  0.713200  0.775600  0.275600  1.0  0.0095
  C  C4884  1  0.680700  0.783100  0.283100  1.0  0.0135
  C  C4885  1  0.597300  0.863600  0.363600  1.0  -0.0505
  C  C4886  1  0.713200  0.275600  0.775600  1.0  0.0095
  C  C4887  1  0.680700  0.283100  0.783100  1.0  0.0135
  C  C4888  1  0.597300  0.363600  0.863600  1.0  -0.0505
  C  C4889  1  0.713200  0.974400  0.474400  1.0  0.0073
  C  C4890  1  0.680700  0.966900  0.466900  1.0  0.0117
  C  C4891  1  0.597300  0.886400  0.386400  1.0  -0.0507
  C  C4892  1  0.213200  0.974400  0.974400  1.0  0.0073
  C  C4893  1  0.180700  0.966900  0.966900  1.0  0.0117
  C  C4894  1  0.097300  0.886400  0.886400  1.0  -0.0507
  C  C4895  1  0.536800  0.474400  0.275600  1.0  0.0105
  C  C4896  1  0.569300  0.466900  0.283100  1.0  0.0148
  C  C4897  1  0.652700  0.386400  0.363600  1.0  -0.0493
  C  C4898  1  0.536800  0.974400  0.775600  1.0  0.0105
  C  C4899  1  0.569300  0.966900  0.783100  1.0  0.0148
  C  C4900  1  0.652700  0.886400  0.863600  1.0  -0.0493
  C  C4901  1  0.775600  0.775600  0.213200  1.0  0.0106
  C  C4902  1  0.783100  0.783100  0.180700  1.0  0.0104
  C  C4903  1  0.863600  0.863600  0.097300  1.0  -0.0537
  C  C4904  1  0.775600  0.275600  0.713200  1.0  0.0106
  C  C4905  1  0.783100  0.283100  0.680700  1.0  0.0104
  C  C4906  1  0.863600  0.363600  0.597300  1.0  -0.0537
  C  C4907  1  0.275600  0.775600  0.713200  1.0  0.0106
  C  C4908  1  0.283100  0.783100  0.680700  1.0  0.0104
  C  C4909  1  0.363600  0.863600  0.597300  1.0  -0.0537
  C  C4910  1  0.275600  0.275600  0.213200  1.0  0.0106
  C  C4911  1  0.283100  0.283100  0.180700  1.0  0.0104
  C  C4912  1  0.363600  0.363600  0.097300  1.0  -0.0537
  C  C4913  1  0.275600  0.974400  0.036800  1.0  0.0106
  C  C4914  1  0.283100  0.966900  0.069300  1.0  0.0104
  C  C4915  1  0.363600  0.886400  0.152700  1.0  -0.052
  C  C4916  1  0.775600  0.974400  0.536800  1.0  0.0106
  C  C4917  1  0.783100  0.966900  0.569300  1.0  0.0104
  C  C4918  1  0.863600  0.886400  0.652700  1.0  -0.052
  C  C4919  1  0.474400  0.275600  0.536800  1.0  0.0113
  C  C4920  1  0.466900  0.283100  0.569300  1.0  0.011
  C  C4921  1  0.386400  0.363600  0.652700  1.0  -0.0516
  C  C4922  1  0.474400  0.775600  0.036800  1.0  0.0113
  C  C4923  1  0.466900  0.783100  0.069300  1.0  0.011
  C  C4924  1  0.386400  0.863600  0.152700  1.0  -0.0516
  C  C4925  1  0.974400  0.474400  0.713200  1.0  0.0081
  C  C4926  1  0.966900  0.466900  0.680700  1.0  0.011
  C  C4927  1  0.886400  0.386400  0.597300  1.0  -0.0526
  C  C4928  1  0.974400  0.974400  0.213200  1.0  0.0081
  C  C4929  1  0.966900  0.966900  0.180700  1.0  0.011
  C  C4930  1  0.886400  0.886400  0.097300  1.0  -0.0526
  C  C4931  1  0.713200  0.474400  0.974400  1.0  0.0073
  C  C4932  1  0.680700  0.466900  0.966900  1.0  0.0117
  C  C4933  1  0.597300  0.386400  0.886400  1.0  -0.0507
  C  C4934  1  0.213200  0.474400  0.474400  1.0  0.0073
  C  C4935  1  0.180700  0.466900  0.466900  1.0  0.0117
  C  C4936  1  0.097300  0.386400  0.386400  1.0  -0.0507
  C  C4937  1  0.536800  0.275600  0.474400  1.0  0.0095
  C  C4938  1  0.569300  0.283100  0.466900  1.0  0.0126
  C  C4939  1  0.652700  0.363600  0.386400  1.0  -0.0532
  C  C4940  1  0.536800  0.775600  0.974400  1.0  0.0095
  C  C4941  1  0.569300  0.783100  0.966900  1.0  0.0126
  C  C4942  1  0.652700  0.863600  0.886400  1.0  -0.0532
  C  C4943  1  0.036800  0.974400  0.275600  1.0  0.0105
  C  C4944  1  0.069300  0.966900  0.283100  1.0  0.0148
  C  C4945  1  0.152700  0.886400  0.363600  1.0  -0.0493
  C  C4946  1  0.036800  0.474400  0.775600  1.0  0.0105
  C  C4947  1  0.069300  0.466900  0.783100  1.0  0.0148
  C  C4948  1  0.152700  0.386400  0.863600  1.0  -0.0493
  C  C4949  1  0.974400  0.713200  0.474400  1.0  0.011
  C  C4950  1  0.966900  0.680700  0.466900  1.0  0.0149
  C  C4951  1  0.886400  0.597300  0.386400  1.0  -0.0508
  C  C4952  1  0.474400  0.536800  0.275600  1.0  0.0121
  C  C4953  1  0.466900  0.569300  0.283100  1.0  0.0153
  C  C4954  1  0.386400  0.652700  0.363600  1.0  -0.0506
  C  C4955  1  0.474400  0.036800  0.775600  1.0  0.0121
  C  C4956  1  0.466900  0.069300  0.783100  1.0  0.0153
  C  C4957  1  0.386400  0.152700  0.863600  1.0  -0.0506
  C  C4958  1  0.275600  0.036800  0.974400  1.0  0.0103
  C  C4959  1  0.283100  0.069300  0.966900  1.0  0.0143
  C  C4960  1  0.363600  0.152700  0.886400  1.0  -0.0511
  C  C4961  1  0.775600  0.036800  0.474400  1.0  0.0103
  C  C4962  1  0.783100  0.069300  0.466900  1.0  0.0143
  C  C4963  1  0.863600  0.152700  0.386400  1.0  -0.0511
  C  C4964  1  0.474400  0.974400  0.713200  1.0  0.0081
  C  C4965  1  0.466900  0.966900  0.680700  1.0  0.011
  C  C4966  1  0.386400  0.886400  0.597300  1.0  -0.0526
  C  C4967  1  0.474400  0.474400  0.213200  1.0  0.0081
  C  C4968  1  0.466900  0.466900  0.180700  1.0  0.011
  C  C4969  1  0.386400  0.386400  0.097300  1.0  -0.0526
  C  C4970  1  0.275600  0.474400  0.536800  1.0  0.0106
  C  C4971  1  0.283100  0.466900  0.569300  1.0  0.0104
  C  C4972  1  0.363600  0.386400  0.652700  1.0  -0.052
  C  C4973  1  0.775600  0.474400  0.036800  1.0  0.0106
  C  C4974  1  0.783100  0.466900  0.069300  1.0  0.0104
  C  C4975  1  0.863600  0.386400  0.152700  1.0  -0.052
  C  C4976  1  0.974400  0.275600  0.036800  1.0  0.0113
  C  C4977  1  0.966900  0.283100  0.069300  1.0  0.011
  C  C4978  1  0.886400  0.363600  0.152700  1.0  -0.0516
  C  C4979  1  0.974400  0.775600  0.536800  1.0  0.0113
  C  C4980  1  0.966900  0.783100  0.569300  1.0  0.011
  C  C4981  1  0.886400  0.863600  0.652700  1.0  -0.0516
  C  C4982  1  0.724400  0.463200  0.525600  1.0  0.0117
  C  C4983  1  0.716900  0.430700  0.533100  1.0  0.0146
  C  C4984  1  0.636400  0.347300  0.613600  1.0  -0.0507
  C  C4985  1  0.224400  0.463200  0.025600  1.0  0.0117
  C  C4986  1  0.216900  0.430700  0.033100  1.0  0.0146
  C  C4987  1  0.136400  0.347300  0.113600  1.0  -0.0507
  C  C4988  1  0.525600  0.286800  0.025600  1.0  0.0117
  C  C4989  1  0.533100  0.319300  0.033100  1.0  0.0146
  C  C4990  1  0.613600  0.402700  0.113600  1.0  -0.0504
  C  C4991  1  0.025600  0.963200  0.724400  1.0  0.0104
  C  C4992  1  0.033100  0.930700  0.716900  1.0  0.0142
  C  C4993  1  0.113600  0.847300  0.636400  1.0  -0.05
  C  C4994  1  0.025600  0.463200  0.224400  1.0  0.0104
  C  C4995  1  0.033100  0.430700  0.216900  1.0  0.0142
  C  C4996  1  0.113600  0.347300  0.136400  1.0  -0.05
  C  C4997  1  0.963200  0.724400  0.025600  1.0  0.0105
  C  C4998  1  0.930700  0.716900  0.033100  1.0  0.0148
  C  C4999  1  0.847300  0.636400  0.113600  1.0  -0.0496
  C  C5000  1  0.963200  0.224400  0.525600  1.0  0.0105
  C  C5001  1  0.930700  0.216900  0.533100  1.0  0.0148
  C  C5002  1  0.847300  0.136400  0.613600  1.0  -0.0496
  C  C5003  1  0.286800  0.025600  0.525600  1.0  0.0106
  C  C5004  1  0.319300  0.033100  0.533100  1.0  0.013
  C  C5005  1  0.402700  0.113600  0.613600  1.0  -0.0528
  C  C5006  1  0.786800  0.025600  0.025600  1.0  0.0106
  C  C5007  1  0.819300  0.033100  0.033100  1.0  0.013
  C  C5008  1  0.902700  0.113600  0.113600  1.0  -0.0528
  C  C5009  1  0.463200  0.525600  0.724400  1.0  0.0078
  C  C5010  1  0.430700  0.533100  0.716900  1.0  0.0135
  C  C5011  1  0.347300  0.613600  0.636400  1.0  -0.0501
  C  C5012  1  0.463200  0.025600  0.224400  1.0  0.0078
  C  C5013  1  0.430700  0.033100  0.216900  1.0  0.0135
  C  C5014  1  0.347300  0.113600  0.136400  1.0  -0.0501
  C  C5015  1  0.724400  0.025600  0.963200  1.0  0.0094
  C  C5016  1  0.716900  0.033100  0.930700  1.0  0.0112
  C  C5017  1  0.636400  0.113600  0.847300  1.0  -0.0538
  C  C5018  1  0.224400  0.025600  0.463200  1.0  0.0094
  C  C5019  1  0.216900  0.033100  0.430700  1.0  0.0112
  C  C5020  1  0.136400  0.113600  0.347300  1.0  -0.0538
  C  C5021  1  0.525600  0.724400  0.463200  1.0  0.01
  C  C5022  1  0.533100  0.716900  0.430700  1.0  0.0106
  C  C5023  1  0.613600  0.636400  0.347300  1.0  -0.0517
  C  C5024  1  0.525600  0.224400  0.963200  1.0  0.01
  C  C5025  1  0.533100  0.216900  0.930700  1.0  0.0106
  C  C5026  1  0.613600  0.136400  0.847300  1.0  -0.0517
  C  C5027  1  0.025600  0.525600  0.286800  1.0  0.0109
  C  C5028  1  0.033100  0.533100  0.319300  1.0  0.0108
  C  C5029  1  0.113600  0.613600  0.402700  1.0  -0.0522
  C  C5030  1  0.025600  0.025600  0.786800  1.0  0.0109
  C  C5031  1  0.033100  0.033100  0.819300  1.0  0.0108
  C  C5032  1  0.113600  0.113600  0.902700  1.0  -0.0522
  N  N5033  1  0.393910  0.523850  0.084580  1.0  -0.2785
  N  N5034  1  0.393910  0.023850  0.584580  1.0  -0.2785
  N  N5035  1  0.893910  0.523850  0.584580  1.0  -0.2785
  N  N5036  1  0.893910  0.023850  0.084580  1.0  -0.2785
  N  N5037  1  0.356090  0.726150  0.584580  1.0  -0.2789
  N  N5038  1  0.356090  0.226150  0.084580  1.0  -0.2789
  N  N5039  1  0.856090  0.726150  0.084580  1.0  -0.2789
  N  N5040  1  0.856090  0.226150  0.584580  1.0  -0.2789
  N  N5041  1  0.856090  0.023850  0.665420  1.0  -0.2777
  N  N5042  1  0.856090  0.523850  0.165420  1.0  -0.2777
  N  N5043  1  0.356090  0.023850  0.165420  1.0  -0.2777
  N  N5044  1  0.356090  0.523850  0.665420  1.0  -0.2777
  N  N5045  1  0.893910  0.226150  0.165420  1.0  -0.2775
  N  N5046  1  0.893910  0.726150  0.665420  1.0  -0.2775
  N  N5047  1  0.393910  0.226150  0.665420  1.0  -0.2775
  N  N5048  1  0.393910  0.726150  0.165420  1.0  -0.2775
  N  N5049  1  0.084580  0.393910  0.523850  1.0  -0.2765
  N  N5050  1  0.084580  0.893910  0.023850  1.0  -0.2765
  N  N5051  1  0.584580  0.393910  0.023850  1.0  -0.2765
  N  N5052  1  0.584580  0.893910  0.523850  1.0  -0.2765
  N  N5053  1  0.584580  0.356090  0.726150  1.0  -0.276
  N  N5054  1  0.584580  0.856090  0.226150  1.0  -0.276
  N  N5055  1  0.084580  0.356090  0.226150  1.0  -0.276
  N  N5056  1  0.084580  0.856090  0.726150  1.0  -0.276
  N  N5057  1  0.665420  0.856090  0.023850  1.0  -0.2767
  N  N5058  1  0.665420  0.356090  0.523850  1.0  -0.2767
  N  N5059  1  0.165420  0.856090  0.523850  1.0  -0.2767
  N  N5060  1  0.165420  0.356090  0.023850  1.0  -0.2767
  N  N5061  1  0.165420  0.893910  0.226150  1.0  -0.2772
  N  N5062  1  0.165420  0.393910  0.726150  1.0  -0.2772
  N  N5063  1  0.665420  0.893910  0.726150  1.0  -0.2772
  N  N5064  1  0.665420  0.393910  0.226150  1.0  -0.2772
  N  N5065  1  0.523850  0.084580  0.393910  1.0  -0.2752
  N  N5066  1  0.523850  0.584580  0.893910  1.0  -0.2752
  N  N5067  1  0.023850  0.084580  0.893910  1.0  -0.2752
  N  N5068  1  0.023850  0.584580  0.393910  1.0  -0.2752
  N  N5069  1  0.726150  0.584580  0.356090  1.0  -0.2772
  N  N5070  1  0.726150  0.084580  0.856090  1.0  -0.2772
  N  N5071  1  0.226150  0.584580  0.856090  1.0  -0.2772
  N  N5072  1  0.226150  0.084580  0.356090  1.0  -0.2772
  N  N5073  1  0.023850  0.665420  0.856090  1.0  -0.2751
  N  N5074  1  0.023850  0.165420  0.356090  1.0  -0.2751
  N  N5075  1  0.523850  0.665420  0.356090  1.0  -0.2751
  N  N5076  1  0.523850  0.165420  0.856090  1.0  -0.2751
  N  N5077  1  0.226150  0.165420  0.893910  1.0  -0.2765
  N  N5078  1  0.226150  0.665420  0.393910  1.0  -0.2765
  N  N5079  1  0.726150  0.165420  0.393910  1.0  -0.2765
  N  N5080  1  0.726150  0.665420  0.893910  1.0  -0.2765
  N  N5081  1  0.273850  0.643910  0.415420  1.0  -0.2759
  N  N5082  1  0.273850  0.143910  0.915420  1.0  -0.2759
  N  N5083  1  0.773850  0.643910  0.915420  1.0  -0.2759
  N  N5084  1  0.773850  0.143910  0.415420  1.0  -0.2759
  N  N5085  1  0.476150  0.606090  0.915420  1.0  -0.2777
  N  N5086  1  0.476150  0.106090  0.415420  1.0  -0.2777
  N  N5087  1  0.976150  0.606090  0.415420  1.0  -0.2777
  N  N5088  1  0.976150  0.106090  0.915420  1.0  -0.2777
  N  N5089  1  0.773850  0.106090  0.834580  1.0  -0.2757
  N  N5090  1  0.773850  0.606090  0.334580  1.0  -0.2757
  N  N5091  1  0.273850  0.106090  0.334580  1.0  -0.2757
  N  N5092  1  0.273850  0.606090  0.834580  1.0  -0.2757
  N  N5093  1  0.976150  0.143910  0.334580  1.0  -0.2785
  N  N5094  1  0.976150  0.643910  0.834580  1.0  -0.2785
  N  N5095  1  0.476150  0.143910  0.834580  1.0  -0.2785
  N  N5096  1  0.476150  0.643910  0.334580  1.0  -0.2785
  N  N5097  1  0.143910  0.334580  0.976150  1.0  -0.2777
  N  N5098  1  0.143910  0.834580  0.476150  1.0  -0.2777
  N  N5099  1  0.643910  0.334580  0.476150  1.0  -0.2777
  N  N5100  1  0.643910  0.834580  0.976150  1.0  -0.2777
  N  N5101  1  0.106090  0.834580  0.773850  1.0  -0.277
  N  N5102  1  0.106090  0.334580  0.273850  1.0  -0.277
  N  N5103  1  0.606090  0.834580  0.273850  1.0  -0.277
  N  N5104  1  0.606090  0.334580  0.773850  1.0  -0.277
  N  N5105  1  0.606090  0.915420  0.476150  1.0  -0.2762
  N  N5106  1  0.606090  0.415420  0.976150  1.0  -0.2762
  N  N5107  1  0.106090  0.915420  0.976150  1.0  -0.2762
  N  N5108  1  0.106090  0.415420  0.476150  1.0  -0.2762
  N  N5109  1  0.643910  0.415420  0.273850  1.0  -0.2769
  N  N5110  1  0.643910  0.915420  0.773850  1.0  -0.2769
  N  N5111  1  0.143910  0.415420  0.773850  1.0  -0.2769
  N  N5112  1  0.143910  0.915420  0.273850  1.0  -0.2769
  N  N5113  1  0.834580  0.773850  0.106090  1.0  -0.2763
  N  N5114  1  0.834580  0.273850  0.606090  1.0  -0.2763
  N  N5115  1  0.334580  0.773850  0.606090  1.0  -0.2763
  N  N5116  1  0.334580  0.273850  0.106090  1.0  -0.2763
  N  N5117  1  0.334580  0.976150  0.143910  1.0  -0.277
  N  N5118  1  0.334580  0.476150  0.643910  1.0  -0.277
  N  N5119  1  0.834580  0.976150  0.643910  1.0  -0.277
  N  N5120  1  0.834580  0.476150  0.143910  1.0  -0.277
  N  N5121  1  0.415420  0.273850  0.643910  1.0  -0.277
  N  N5122  1  0.415420  0.773850  0.143910  1.0  -0.277
  N  N5123  1  0.915420  0.273850  0.143910  1.0  -0.277
  N  N5124  1  0.915420  0.773850  0.643910  1.0  -0.277
  N  N5125  1  0.915420  0.476150  0.606090  1.0  -0.2773
  N  N5126  1  0.915420  0.976150  0.106090  1.0  -0.2773
  N  N5127  1  0.415420  0.476150  0.106090  1.0  -0.2773
  N  N5128  1  0.415420  0.976150  0.606090  1.0  -0.2773
  N  N5129  1  0.606090  0.476150  0.915420  1.0  -0.2779
  N  N5130  1  0.606090  0.976150  0.415420  1.0  -0.2779
  N  N5131  1  0.106090  0.476150  0.415420  1.0  -0.2779
  N  N5132  1  0.106090  0.976150  0.915420  1.0  -0.2779
  N  N5133  1  0.643910  0.273850  0.415420  1.0  -0.2777
  N  N5134  1  0.643910  0.773850  0.915420  1.0  -0.2777
  N  N5135  1  0.143910  0.273850  0.915420  1.0  -0.2777
  N  N5136  1  0.143910  0.773850  0.415420  1.0  -0.2777
  N  N5137  1  0.143910  0.976150  0.334580  1.0  -0.2787
  N  N5138  1  0.143910  0.476150  0.834580  1.0  -0.2787
  N  N5139  1  0.643910  0.976150  0.834580  1.0  -0.2787
  N  N5140  1  0.643910  0.476150  0.334580  1.0  -0.2787
  N  N5141  1  0.106090  0.773850  0.834580  1.0  -0.2784
  N  N5142  1  0.106090  0.273850  0.334580  1.0  -0.2784
  N  N5143  1  0.606090  0.773850  0.334580  1.0  -0.2784
  N  N5144  1  0.606090  0.273850  0.834580  1.0  -0.2784
  N  N5145  1  0.915420  0.606090  0.476150  1.0  -0.2763
  N  N5146  1  0.915420  0.106090  0.976150  1.0  -0.2763
  N  N5147  1  0.415420  0.606090  0.976150  1.0  -0.2763
  N  N5148  1  0.415420  0.106090  0.476150  1.0  -0.2763
  N  N5149  1  0.415420  0.643910  0.273850  1.0  -0.2769
  N  N5150  1  0.415420  0.143910  0.773850  1.0  -0.2769
  N  N5151  1  0.915420  0.643910  0.773850  1.0  -0.2769
  N  N5152  1  0.915420  0.143910  0.273850  1.0  -0.2769
  N  N5153  1  0.334580  0.143910  0.976150  1.0  -0.2768
  N  N5154  1  0.334580  0.643910  0.476150  1.0  -0.2768
  N  N5155  1  0.834580  0.143910  0.476150  1.0  -0.2768
  N  N5156  1  0.834580  0.643910  0.976150  1.0  -0.2768
  N  N5157  1  0.834580  0.106090  0.773850  1.0  -0.2766
  N  N5158  1  0.834580  0.606090  0.273850  1.0  -0.2766
  N  N5159  1  0.334580  0.106090  0.273850  1.0  -0.2766
  N  N5160  1  0.334580  0.606090  0.773850  1.0  -0.2766
  N  N5161  1  0.476150  0.915420  0.606090  1.0  -0.2766
  N  N5162  1  0.476150  0.415420  0.106090  1.0  -0.2766
  N  N5163  1  0.976150  0.915420  0.106090  1.0  -0.2766
  N  N5164  1  0.976150  0.415420  0.606090  1.0  -0.2766
  N  N5165  1  0.273850  0.415420  0.643910  1.0  -0.2749
  N  N5166  1  0.273850  0.915420  0.143910  1.0  -0.2749
  N  N5167  1  0.773850  0.415420  0.143910  1.0  -0.2749
  N  N5168  1  0.773850  0.915420  0.643910  1.0  -0.2749
  N  N5169  1  0.976150  0.334580  0.143910  1.0  -0.2775
  N  N5170  1  0.976150  0.834580  0.643910  1.0  -0.2775
  N  N5171  1  0.476150  0.334580  0.643910  1.0  -0.2775
  N  N5172  1  0.476150  0.834580  0.143910  1.0  -0.2775
  N  N5173  1  0.773850  0.834580  0.106090  1.0  -0.2753
  N  N5174  1  0.773850  0.334580  0.606090  1.0  -0.2753
  N  N5175  1  0.273850  0.834580  0.606090  1.0  -0.2753
  N  N5176  1  0.273850  0.334580  0.106090  1.0  -0.2753
  N  N5177  1  0.726150  0.356090  0.584580  1.0  -0.2784
  N  N5178  1  0.726150  0.856090  0.084580  1.0  -0.2784
  N  N5179  1  0.226150  0.356090  0.084580  1.0  -0.2784
  N  N5180  1  0.226150  0.856090  0.584580  1.0  -0.2784
  N  N5181  1  0.523850  0.393910  0.084580  1.0  -0.2759
  N  N5182  1  0.523850  0.893910  0.584580  1.0  -0.2759
  N  N5183  1  0.023850  0.393910  0.584580  1.0  -0.2759
  N  N5184  1  0.023850  0.893910  0.084580  1.0  -0.2759
  N  N5185  1  0.226150  0.893910  0.165420  1.0  -0.2776
  N  N5186  1  0.226150  0.393910  0.665420  1.0  -0.2776
  N  N5187  1  0.726150  0.893910  0.665420  1.0  -0.2776
  N  N5188  1  0.726150  0.393910  0.165420  1.0  -0.2776
  N  N5189  1  0.023850  0.856090  0.665420  1.0  -0.2756
  N  N5190  1  0.023850  0.356090  0.165420  1.0  -0.2756
  N  N5191  1  0.523850  0.856090  0.165420  1.0  -0.2756
  N  N5192  1  0.523850  0.356090  0.665420  1.0  -0.2756
  N  N5193  1  0.856090  0.665420  0.023850  1.0  -0.2767
  N  N5194  1  0.856090  0.165420  0.523850  1.0  -0.2767
  N  N5195  1  0.356090  0.665420  0.523850  1.0  -0.2767
  N  N5196  1  0.356090  0.165420  0.023850  1.0  -0.2767
  N  N5197  1  0.893910  0.165420  0.226150  1.0  -0.2764
  N  N5198  1  0.893910  0.665420  0.726150  1.0  -0.2764
  N  N5199  1  0.393910  0.165420  0.726150  1.0  -0.2764
  N  N5200  1  0.393910  0.665420  0.226150  1.0  -0.2764
  N  N5201  1  0.393910  0.084580  0.523850  1.0  -0.2771
  N  N5202  1  0.393910  0.584580  0.023850  1.0  -0.2771
  N  N5203  1  0.893910  0.084580  0.023850  1.0  -0.2771
  N  N5204  1  0.893910  0.584580  0.523850  1.0  -0.2771
  N  N5205  1  0.356090  0.584580  0.726150  1.0  -0.2778
  N  N5206  1  0.356090  0.084580  0.226150  1.0  -0.2778
  N  N5207  1  0.856090  0.584580  0.226150  1.0  -0.2778
  N  N5208  1  0.856090  0.084580  0.726150  1.0  -0.2778
  N  N5209  1  0.165420  0.226150  0.893910  1.0  -0.2775
  N  N5210  1  0.165420  0.726150  0.393910  1.0  -0.2775
  N  N5211  1  0.665420  0.226150  0.393910  1.0  -0.2775
  N  N5212  1  0.665420  0.726150  0.893910  1.0  -0.2775
  N  N5213  1  0.665420  0.023850  0.856090  1.0  -0.277
  N  N5214  1  0.665420  0.523850  0.356090  1.0  -0.277
  N  N5215  1  0.165420  0.023850  0.356090  1.0  -0.277
  N  N5216  1  0.165420  0.523850  0.856090  1.0  -0.277
  N  N5217  1  0.584580  0.726150  0.356090  1.0  -0.2765
  N  N5218  1  0.584580  0.226150  0.856090  1.0  -0.2765
  N  N5219  1  0.084580  0.726150  0.856090  1.0  -0.2765
  N  N5220  1  0.084580  0.226150  0.356090  1.0  -0.2765
  N  N5221  1  0.084580  0.523850  0.393910  1.0  -0.2764
  N  N5222  1  0.084580  0.023850  0.893910  1.0  -0.2764
  N  N5223  1  0.584580  0.523850  0.893910  1.0  -0.2764
  N  N5224  1  0.584580  0.023850  0.393910  1.0  -0.2764
  N  N5225  1  0.154800  0.595200  0.095200  1.0  -0.2374
  N  N5226  1  0.187500  0.562500  0.062500  1.0  -0.2703
  N  N5227  1  0.595200  0.654800  0.595200  1.0  -0.2363
  N  N5228  1  0.562500  0.687500  0.562500  1.0  -0.2693
  N  N5229  1  0.095200  0.095200  0.654800  1.0  -0.2378
  N  N5230  1  0.062500  0.062500  0.687500  1.0  -0.2668
  N  N5231  1  0.654800  0.154800  0.154800  1.0  -0.2383
  N  N5232  1  0.687500  0.187500  0.187500  1.0  -0.2694
  N  N5233  1  0.654800  0.654800  0.654800  1.0  -0.2383
  N  N5234  1  0.687500  0.687500  0.687500  1.0  -0.2694
  N  N5235  1  0.095200  0.154800  0.595200  1.0  -0.2363
  N  N5236  1  0.062500  0.187500  0.562500  1.0  -0.2693
  N  N5237  1  0.595200  0.595200  0.654800  1.0  -0.2378
  N  N5238  1  0.562500  0.562500  0.687500  1.0  -0.2668
  N  N5239  1  0.654800  0.095200  0.095200  1.0  -0.2374
  N  N5240  1  0.687500  0.062500  0.062500  1.0  -0.2703
  N  N5241  1  0.154800  0.654800  0.154800  1.0  -0.2383
  N  N5242  1  0.187500  0.687500  0.187500  1.0  -0.2694
  N  N5243  1  0.595200  0.095200  0.154800  1.0  -0.2378
  N  N5244  1  0.562500  0.062500  0.187500  1.0  -0.2668
  N  N5245  1  0.654800  0.595200  0.595200  1.0  -0.2374
  N  N5246  1  0.687500  0.562500  0.562500  1.0  -0.2703
  N  N5247  1  0.095200  0.654800  0.095200  1.0  -0.2363
  N  N5248  1  0.062500  0.687500  0.062500  1.0  -0.2693
  N  N5249  1  0.154800  0.154800  0.654800  1.0  -0.2383
  N  N5250  1  0.187500  0.187500  0.687500  1.0  -0.2694
  N  N5251  1  0.345200  0.404800  0.404800  1.0  -0.2374
  N  N5252  1  0.312500  0.437500  0.437500  1.0  -0.2682
  N  N5253  1  0.404800  0.845200  0.904800  1.0  -0.238
  N  N5254  1  0.437500  0.812500  0.937500  1.0  -0.2677
  N  N5255  1  0.845200  0.345200  0.845200  1.0  -0.2368
  N  N5256  1  0.812500  0.312500  0.812500  1.0  -0.2692
  N  N5257  1  0.904800  0.904800  0.345200  1.0  -0.2372
  N  N5258  1  0.937500  0.937500  0.312500  1.0  -0.2709
  N  N5259  1  0.904800  0.345200  0.904800  1.0  -0.238
  N  N5260  1  0.937500  0.312500  0.937500  1.0  -0.2677
  N  N5261  1  0.345200  0.845200  0.845200  1.0  -0.2368
  N  N5262  1  0.312500  0.812500  0.812500  1.0  -0.2692
  N  N5263  1  0.345200  0.345200  0.345200  1.0  -0.2368
  N  N5264  1  0.312500  0.312500  0.312500  1.0  -0.2692
  N  N5265  1  0.845200  0.904800  0.404800  1.0  -0.2374
  N  N5266  1  0.812500  0.937500  0.437500  1.0  -0.2682
  N  N5267  1  0.404800  0.404800  0.345200  1.0  -0.2372
  N  N5268  1  0.437500  0.437500  0.312500  1.0  -0.2709
  N  N5269  1  0.845200  0.845200  0.345200  1.0  -0.2368
  N  N5270  1  0.812500  0.812500  0.312500  1.0  -0.2692
  N  N5271  1  0.345200  0.904800  0.904800  1.0  -0.2374
  N  N5272  1  0.312500  0.937500  0.937500  1.0  -0.2682
  N  N5273  1  0.404800  0.345200  0.404800  1.0  -0.238
  N  N5274  1  0.437500  0.312500  0.437500  1.0  -0.2677
  N  N5275  1  0.904800  0.404800  0.845200  1.0  -0.2372
  N  N5276  1  0.937500  0.437500  0.812500  1.0  -0.2709
  N  N5277  1  0.845200  0.404800  0.904800  1.0  -0.2374
  N  N5278  1  0.812500  0.437500  0.937500  1.0  -0.2682
  N  N5279  1  0.904800  0.845200  0.404800  1.0  -0.238
  N  N5280  1  0.937500  0.812500  0.437500  1.0  -0.2677
  N  N5281  1  0.404800  0.904800  0.845200  1.0  -0.2372
  N  N5282  1  0.437500  0.937500  0.812500  1.0  -0.2709
  N  N5283  1  0.595200  0.154800  0.095200  1.0  -0.2363
  N  N5284  1  0.562500  0.187500  0.062500  1.0  -0.2693
  N  N5285  1  0.154800  0.095200  0.595200  1.0  -0.2374
  N  N5286  1  0.187500  0.062500  0.562500  1.0  -0.2703
  N  N5287  1  0.095200  0.595200  0.154800  1.0  -0.2378
  N  N5288  1  0.062500  0.562500  0.187500  1.0  -0.2668
  N  N5289  1  0.267200  0.543410  0.043410  1.0  -0.2856
  N  N5290  1  0.321400  0.555540  0.055540  1.0  -0.3033
  N  N5291  1  0.372100  0.604740  0.104740  1.0  -0.2906
  N  N5292  1  0.767200  0.543410  0.543410  1.0  -0.2856
  N  N5293  1  0.821400  0.555540  0.555540  1.0  -0.3033
  N  N5294  1  0.872100  0.604740  0.604740  1.0  -0.2906
  N  N5295  1  0.482800  0.706590  0.543410  1.0  -0.2804
  N  N5296  1  0.428600  0.694460  0.555540  1.0  -0.3089
  N  N5297  1  0.377900  0.645260  0.604740  1.0  -0.291
  N  N5298  1  0.482800  0.206590  0.043410  1.0  -0.2804
  N  N5299  1  0.428600  0.194460  0.055540  1.0  -0.3089
  N  N5300  1  0.377900  0.145260  0.104740  1.0  -0.291
  N  N5301  1  0.982800  0.043410  0.706590  1.0  -0.2803
  N  N5302  1  0.928600  0.055540  0.694460  1.0  -0.3096
  N  N5303  1  0.877900  0.104740  0.645260  1.0  -0.2885
  N  N5304  1  0.982800  0.543410  0.206590  1.0  -0.2803
  N  N5305  1  0.928600  0.555540  0.194460  1.0  -0.3096
  N  N5306  1  0.877900  0.604740  0.145260  1.0  -0.2885
  N  N5307  1  0.767200  0.206590  0.206590  1.0  -0.2849
  N  N5308  1  0.821400  0.194460  0.194460  1.0  -0.3039
  N  N5309  1  0.872100  0.145260  0.145260  1.0  -0.2904
  N  N5310  1  0.767200  0.706590  0.706590  1.0  -0.2849
  N  N5311  1  0.821400  0.694460  0.694460  1.0  -0.3039
  N  N5312  1  0.872100  0.645260  0.645260  1.0  -0.2904
  N  N5313  1  0.267200  0.206590  0.706590  1.0  -0.2849
  N  N5314  1  0.321400  0.194460  0.694460  1.0  -0.3039
  N  N5315  1  0.372100  0.145260  0.645260  1.0  -0.2904
  N  N5316  1  0.267200  0.706590  0.206590  1.0  -0.2849
  N  N5317  1  0.321400  0.694460  0.194460  1.0  -0.3039
  N  N5318  1  0.372100  0.645260  0.145260  1.0  -0.2904
  N  N5319  1  0.043410  0.267200  0.543410  1.0  -0.2855
  N  N5320  1  0.055540  0.321400  0.555540  1.0  -0.3087
  N  N5321  1  0.104740  0.372100  0.604740  1.0  -0.2899
  N  N5322  1  0.043410  0.767200  0.043410  1.0  -0.2855
  N  N5323  1  0.055540  0.821400  0.055540  1.0  -0.3087
  N  N5324  1  0.104740  0.872100  0.104740  1.0  -0.2899
  N  N5325  1  0.543410  0.767200  0.543410  1.0  -0.2855
  N  N5326  1  0.555540  0.821400  0.555540  1.0  -0.3087
  N  N5327  1  0.604740  0.872100  0.604740  1.0  -0.2899
  N  N5328  1  0.543410  0.482800  0.706590  1.0  -0.2852
  N  N5329  1  0.555540  0.428600  0.694460  1.0  -0.3088
  N  N5330  1  0.604740  0.377900  0.645260  1.0  -0.289
  N  N5331  1  0.543410  0.982800  0.206590  1.0  -0.2852
  N  N5332  1  0.555540  0.928600  0.194460  1.0  -0.3088
  N  N5333  1  0.604740  0.877900  0.145260  1.0  -0.289
  N  N5334  1  0.706590  0.982800  0.043410  1.0  -0.2853
  N  N5335  1  0.694460  0.928600  0.055540  1.0  -0.3074
  N  N5336  1  0.645260  0.877900  0.104740  1.0  -0.2895
  N  N5337  1  0.206590  0.982800  0.543410  1.0  -0.2853
  N  N5338  1  0.194460  0.928600  0.555540  1.0  -0.3074
  N  N5339  1  0.145260  0.877900  0.604740  1.0  -0.2895
  N  N5340  1  0.206590  0.767200  0.206590  1.0  -0.2848
  N  N5341  1  0.194460  0.821400  0.194460  1.0  -0.3097
  N  N5342  1  0.145260  0.872100  0.145260  1.0  -0.2876
  N  N5343  1  0.206590  0.267200  0.706590  1.0  -0.2848
  N  N5344  1  0.194460  0.321400  0.694460  1.0  -0.3097
  N  N5345  1  0.145260  0.372100  0.645260  1.0  -0.2876
  N  N5346  1  0.706590  0.767200  0.706590  1.0  -0.2848
  N  N5347  1  0.694460  0.821400  0.694460  1.0  -0.3097
  N  N5348  1  0.645260  0.872100  0.645260  1.0  -0.2876
  N  N5349  1  0.706590  0.267200  0.206590  1.0  -0.2848
  N  N5350  1  0.694460  0.321400  0.194460  1.0  -0.3097
  N  N5351  1  0.645260  0.372100  0.145260  1.0  -0.2876
  N  N5352  1  0.543410  0.043410  0.267200  1.0  -0.2872
  N  N5353  1  0.555540  0.055540  0.321400  1.0  -0.3111
  N  N5354  1  0.604740  0.104740  0.372100  1.0  -0.2885
  N  N5355  1  0.543410  0.543410  0.767200  1.0  -0.2872
  N  N5356  1  0.555540  0.555540  0.821400  1.0  -0.3111
  N  N5357  1  0.604740  0.604740  0.872100  1.0  -0.2885
  N  N5358  1  0.706590  0.543410  0.482800  1.0  -0.288
  N  N5359  1  0.694460  0.555540  0.428600  1.0  -0.3083
  N  N5360  1  0.645260  0.604740  0.377900  1.0  -0.2875
  N  N5361  1  0.206590  0.543410  0.982800  1.0  -0.288
  N  N5362  1  0.194460  0.555540  0.928600  1.0  -0.3083
  N  N5363  1  0.145260  0.604740  0.877900  1.0  -0.2875
  N  N5364  1  0.043410  0.706590  0.982800  1.0  -0.2881
  N  N5365  1  0.055540  0.694460  0.928600  1.0  -0.3088
  N  N5366  1  0.104740  0.645260  0.877900  1.0  -0.2892
  N  N5367  1  0.043410  0.206590  0.482800  1.0  -0.2881
  N  N5368  1  0.055540  0.194460  0.428600  1.0  -0.3088
  N  N5369  1  0.104740  0.145260  0.377900  1.0  -0.2892
  N  N5370  1  0.206590  0.206590  0.767200  1.0  -0.2858
  N  N5371  1  0.194460  0.194460  0.821400  1.0  -0.3111
  N  N5372  1  0.145260  0.145260  0.872100  1.0  -0.2892
  N  N5373  1  0.206590  0.706590  0.267200  1.0  -0.2858
  N  N5374  1  0.194460  0.694460  0.321400  1.0  -0.3111
  N  N5375  1  0.145260  0.645260  0.372100  1.0  -0.2892
  N  N5376  1  0.706590  0.206590  0.267200  1.0  -0.2858
  N  N5377  1  0.694460  0.194460  0.321400  1.0  -0.3111
  N  N5378  1  0.645260  0.145260  0.372100  1.0  -0.2892
  N  N5379  1  0.706590  0.706590  0.767200  1.0  -0.2858
  N  N5380  1  0.694460  0.694460  0.821400  1.0  -0.3111
  N  N5381  1  0.645260  0.645260  0.872100  1.0  -0.2892
  N  N5382  1  0.293410  0.517200  0.456590  1.0  -0.2849
  N  N5383  1  0.305540  0.571400  0.444460  1.0  -0.3093
  N  N5384  1  0.354740  0.622100  0.395260  1.0  -0.2888
  N  N5385  1  0.793410  0.517200  0.956590  1.0  -0.2849
  N  N5386  1  0.805540  0.571400  0.944460  1.0  -0.3093
  N  N5387  1  0.854740  0.622100  0.895260  1.0  -0.2888
  N  N5388  1  0.456590  0.732800  0.956590  1.0  -0.2848
  N  N5389  1  0.444460  0.678600  0.944460  1.0  -0.3085
  N  N5390  1  0.395260  0.627900  0.895260  1.0  -0.2878
  N  N5391  1  0.456590  0.232800  0.456590  1.0  -0.2848
  N  N5392  1  0.444460  0.178600  0.444460  1.0  -0.3085
  N  N5393  1  0.395260  0.127900  0.395260  1.0  -0.2878
  N  N5394  1  0.956590  0.232800  0.956590  1.0  -0.2848
  N  N5395  1  0.944460  0.178600  0.944460  1.0  -0.3085
  N  N5396  1  0.895260  0.127900  0.895260  1.0  -0.2878
  N  N5397  1  0.793410  0.232800  0.793410  1.0  -0.2857
  N  N5398  1  0.805540  0.178600  0.805540  1.0  -0.3078
  N  N5399  1  0.854740  0.127900  0.854740  1.0  -0.2901
  N  N5400  1  0.793410  0.732800  0.293410  1.0  -0.2857
  N  N5401  1  0.805540  0.678600  0.305540  1.0  -0.3078
  N  N5402  1  0.854740  0.627900  0.354740  1.0  -0.2901
  N  N5403  1  0.293410  0.232800  0.293410  1.0  -0.2857
  N  N5404  1  0.305540  0.178600  0.305540  1.0  -0.3078
  N  N5405  1  0.354740  0.127900  0.354740  1.0  -0.2901
  N  N5406  1  0.293410  0.732800  0.793410  1.0  -0.2857
  N  N5407  1  0.305540  0.678600  0.805540  1.0  -0.3078
  N  N5408  1  0.354740  0.627900  0.854740  1.0  -0.2901
  N  N5409  1  0.956590  0.017200  0.293410  1.0  -0.285
  N  N5410  1  0.944460  0.071400  0.305540  1.0  -0.3089
  N  N5411  1  0.895260  0.122100  0.354740  1.0  -0.2896
  N  N5412  1  0.956590  0.517200  0.793410  1.0  -0.285
  N  N5413  1  0.944460  0.571400  0.805540  1.0  -0.3089
  N  N5414  1  0.895260  0.622100  0.854740  1.0  -0.2896
  N  N5415  1  0.017200  0.293410  0.956590  1.0  -0.2851
  N  N5416  1  0.071400  0.305540  0.944460  1.0  -0.3041
  N  N5417  1  0.122100  0.354740  0.895260  1.0  -0.2882
  N  N5418  1  0.017200  0.793410  0.456590  1.0  -0.2851
  N  N5419  1  0.071400  0.805540  0.444460  1.0  -0.3041
  N  N5420  1  0.122100  0.854740  0.395260  1.0  -0.2882
  N  N5421  1  0.232800  0.793410  0.793410  1.0  -0.2804
  N  N5422  1  0.178600  0.805540  0.805540  1.0  -0.309
  N  N5423  1  0.127900  0.854740  0.854740  1.0  -0.291
  N  N5424  1  0.232800  0.293410  0.293410  1.0  -0.2804
  N  N5425  1  0.178600  0.305540  0.305540  1.0  -0.309
  N  N5426  1  0.127900  0.354740  0.354740  1.0  -0.291
  N  N5427  1  0.732800  0.793410  0.293410  1.0  -0.2804
  N  N5428  1  0.678600  0.805540  0.305540  1.0  -0.309
  N  N5429  1  0.627900  0.854740  0.354740  1.0  -0.291
  N  N5430  1  0.732800  0.293410  0.793410  1.0  -0.2804
  N  N5431  1  0.678600  0.305540  0.805540  1.0  -0.309
  N  N5432  1  0.627900  0.354740  0.854740  1.0  -0.291
  N  N5433  1  0.732800  0.956590  0.456590  1.0  -0.2801
  N  N5434  1  0.678600  0.944460  0.444460  1.0  -0.3097
  N  N5435  1  0.627900  0.895260  0.395260  1.0  -0.2905
  N  N5436  1  0.232800  0.956590  0.956590  1.0  -0.2801
  N  N5437  1  0.178600  0.944460  0.944460  1.0  -0.3097
  N  N5438  1  0.127900  0.895260  0.895260  1.0  -0.2905
  N  N5439  1  0.517200  0.456590  0.293410  1.0  -0.2852
  N  N5440  1  0.571400  0.444460  0.305540  1.0  -0.3034
  N  N5441  1  0.622100  0.395260  0.354740  1.0  -0.291
  N  N5442  1  0.517200  0.956590  0.793410  1.0  -0.2852
  N  N5443  1  0.571400  0.944460  0.805540  1.0  -0.3034
  N  N5444  1  0.622100  0.895260  0.854740  1.0  -0.291
  N  N5445  1  0.793410  0.793410  0.232800  1.0  -0.2881
  N  N5446  1  0.805540  0.805540  0.178600  1.0  -0.308
  N  N5447  1  0.854740  0.854740  0.127900  1.0  -0.2884
  N  N5448  1  0.793410  0.293410  0.732800  1.0  -0.2881
  N  N5449  1  0.805540  0.305540  0.678600  1.0  -0.308
  N  N5450  1  0.854740  0.354740  0.627900  1.0  -0.2884
  N  N5451  1  0.293410  0.793410  0.732800  1.0  -0.2881
  N  N5452  1  0.305540  0.805540  0.678600  1.0  -0.308
  N  N5453  1  0.354740  0.854740  0.627900  1.0  -0.2884
  N  N5454  1  0.293410  0.293410  0.232800  1.0  -0.2881
  N  N5455  1  0.305540  0.305540  0.178600  1.0  -0.308
  N  N5456  1  0.354740  0.354740  0.127900  1.0  -0.2884
  N  N5457  1  0.293410  0.956590  0.017200  1.0  -0.2865
  N  N5458  1  0.305540  0.944460  0.071400  1.0  -0.3112
  N  N5459  1  0.354740  0.895260  0.122100  1.0  -0.2894
  N  N5460  1  0.793410  0.956590  0.517200  1.0  -0.2865
  N  N5461  1  0.805540  0.944460  0.571400  1.0  -0.3112
  N  N5462  1  0.854740  0.895260  0.622100  1.0  -0.2894
  N  N5463  1  0.456590  0.293410  0.517200  1.0  -0.2866
  N  N5464  1  0.444460  0.305540  0.571400  1.0  -0.3111
  N  N5465  1  0.395260  0.354740  0.622100  1.0  -0.2876
  N  N5466  1  0.456590  0.793410  0.017200  1.0  -0.2866
  N  N5467  1  0.444460  0.805540  0.071400  1.0  -0.3111
  N  N5468  1  0.395260  0.854740  0.122100  1.0  -0.2876
  N  N5469  1  0.956590  0.456590  0.732800  1.0  -0.2877
  N  N5470  1  0.944460  0.444460  0.678600  1.0  -0.3089
  N  N5471  1  0.895260  0.395260  0.627900  1.0  -0.2891
  N  N5472  1  0.956590  0.956590  0.232800  1.0  -0.2877
  N  N5473  1  0.944460  0.944460  0.178600  1.0  -0.3089
  N  N5474  1  0.895260  0.895260  0.127900  1.0  -0.2891
  N  N5475  1  0.732800  0.456590  0.956590  1.0  -0.2801
  N  N5476  1  0.678600  0.444460  0.944460  1.0  -0.3097
  N  N5477  1  0.627900  0.395260  0.895260  1.0  -0.2905
  N  N5478  1  0.232800  0.456590  0.456590  1.0  -0.2801
  N  N5479  1  0.178600  0.444460  0.444460  1.0  -0.3097
  N  N5480  1  0.127900  0.395260  0.395260  1.0  -0.2905
  N  N5481  1  0.517200  0.293410  0.456590  1.0  -0.2851
  N  N5482  1  0.571400  0.305540  0.444460  1.0  -0.3041
  N  N5483  1  0.622100  0.354740  0.395260  1.0  -0.2882
  N  N5484  1  0.517200  0.793410  0.956590  1.0  -0.2851
  N  N5485  1  0.571400  0.805540  0.944460  1.0  -0.3041
  N  N5486  1  0.622100  0.854740  0.895260  1.0  -0.2882
  N  N5487  1  0.017200  0.956590  0.293410  1.0  -0.2852
  N  N5488  1  0.071400  0.944460  0.305540  1.0  -0.3034
  N  N5489  1  0.122100  0.895260  0.354740  1.0  -0.291
  N  N5490  1  0.017200  0.456590  0.793410  1.0  -0.2852
  N  N5491  1  0.071400  0.444460  0.805540  1.0  -0.3034
  N  N5492  1  0.122100  0.395260  0.854740  1.0  -0.291
  N  N5493  1  0.956590  0.732800  0.456590  1.0  -0.2848
  N  N5494  1  0.944460  0.678600  0.444460  1.0  -0.3085
  N  N5495  1  0.895260  0.627900  0.395260  1.0  -0.2878
  N  N5496  1  0.456590  0.517200  0.293410  1.0  -0.285
  N  N5497  1  0.444460  0.571400  0.305540  1.0  -0.3089
  N  N5498  1  0.395260  0.622100  0.354740  1.0  -0.2896
  N  N5499  1  0.456590  0.017200  0.793410  1.0  -0.285
  N  N5500  1  0.444460  0.071400  0.805540  1.0  -0.3089
  N  N5501  1  0.395260  0.122100  0.854740  1.0  -0.2896
  N  N5502  1  0.293410  0.017200  0.956590  1.0  -0.2849
  N  N5503  1  0.305540  0.071400  0.944460  1.0  -0.3093
  N  N5504  1  0.354740  0.122100  0.895260  1.0  -0.2888
  N  N5505  1  0.793410  0.017200  0.456590  1.0  -0.2849
  N  N5506  1  0.805540  0.071400  0.444460  1.0  -0.3093
  N  N5507  1  0.854740  0.122100  0.395260  1.0  -0.2888
  N  N5508  1  0.456590  0.956590  0.732800  1.0  -0.2877
  N  N5509  1  0.444460  0.944460  0.678600  1.0  -0.3089
  N  N5510  1  0.395260  0.895260  0.627900  1.0  -0.2891
  N  N5511  1  0.456590  0.456590  0.232800  1.0  -0.2877
  N  N5512  1  0.444460  0.444460  0.178600  1.0  -0.3089
  N  N5513  1  0.395260  0.395260  0.127900  1.0  -0.2891
  N  N5514  1  0.293410  0.456590  0.517200  1.0  -0.2865
  N  N5515  1  0.305540  0.444460  0.571400  1.0  -0.3112
  N  N5516  1  0.354740  0.395260  0.622100  1.0  -0.2894
  N  N5517  1  0.793410  0.456590  0.017200  1.0  -0.2865
  N  N5518  1  0.805540  0.444460  0.071400  1.0  -0.3112
  N  N5519  1  0.854740  0.395260  0.122100  1.0  -0.2894
  N  N5520  1  0.956590  0.293410  0.017200  1.0  -0.2866
  N  N5521  1  0.944460  0.305540  0.071400  1.0  -0.3111
  N  N5522  1  0.895260  0.354740  0.122100  1.0  -0.2876
  N  N5523  1  0.956590  0.793410  0.517200  1.0  -0.2866
  N  N5524  1  0.944460  0.805540  0.571400  1.0  -0.3111
  N  N5525  1  0.895260  0.854740  0.622100  1.0  -0.2876
  N  N5526  1  0.706590  0.482800  0.543410  1.0  -0.2853
  N  N5527  1  0.694460  0.428600  0.555540  1.0  -0.3074
  N  N5528  1  0.645260  0.377900  0.604740  1.0  -0.2895
  N  N5529  1  0.206590  0.482800  0.043410  1.0  -0.2853
  N  N5530  1  0.194460  0.428600  0.055540  1.0  -0.3074
  N  N5531  1  0.145260  0.377900  0.104740  1.0  -0.2895
  N  N5532  1  0.543410  0.267200  0.043410  1.0  -0.2855
  N  N5533  1  0.555540  0.321400  0.055540  1.0  -0.3087
  N  N5534  1  0.604740  0.372100  0.104740  1.0  -0.2899
  N  N5535  1  0.043410  0.982800  0.706590  1.0  -0.2852
  N  N5536  1  0.055540  0.928600  0.694460  1.0  -0.3088
  N  N5537  1  0.104740  0.877900  0.645260  1.0  -0.289
  N  N5538  1  0.043410  0.482800  0.206590  1.0  -0.2852
  N  N5539  1  0.055540  0.428600  0.194460  1.0  -0.3088
  N  N5540  1  0.104740  0.377900  0.145260  1.0  -0.289
  N  N5541  1  0.982800  0.706590  0.043410  1.0  -0.2804
  N  N5542  1  0.928600  0.694460  0.055540  1.0  -0.3089
  N  N5543  1  0.877900  0.645260  0.104740  1.0  -0.291
  N  N5544  1  0.982800  0.206590  0.543410  1.0  -0.2804
  N  N5545  1  0.928600  0.194460  0.555540  1.0  -0.3089
  N  N5546  1  0.877900  0.145260  0.604740  1.0  -0.291
  N  N5547  1  0.267200  0.043410  0.543410  1.0  -0.2856
  N  N5548  1  0.321400  0.055540  0.555540  1.0  -0.3033
  N  N5549  1  0.372100  0.104740  0.604740  1.0  -0.2906
  N  N5550  1  0.767200  0.043410  0.043410  1.0  -0.2856
  N  N5551  1  0.821400  0.055540  0.055540  1.0  -0.3033
  N  N5552  1  0.872100  0.104740  0.104740  1.0  -0.2906
  N  N5553  1  0.482800  0.543410  0.706590  1.0  -0.2803
  N  N5554  1  0.428600  0.555540  0.694460  1.0  -0.3096
  N  N5555  1  0.377900  0.604740  0.645260  1.0  -0.2885
  N  N5556  1  0.482800  0.043410  0.206590  1.0  -0.2803
  N  N5557  1  0.428600  0.055540  0.194460  1.0  -0.3096
  N  N5558  1  0.377900  0.104740  0.145260  1.0  -0.2885
  N  N5559  1  0.706590  0.043410  0.982800  1.0  -0.288
  N  N5560  1  0.694460  0.055540  0.928600  1.0  -0.3083
  N  N5561  1  0.645260  0.104740  0.877900  1.0  -0.2875
  N  N5562  1  0.206590  0.043410  0.482800  1.0  -0.288
  N  N5563  1  0.194460  0.055540  0.428600  1.0  -0.3083
  N  N5564  1  0.145260  0.104740  0.377900  1.0  -0.2875
  N  N5565  1  0.543410  0.706590  0.482800  1.0  -0.2881
  N  N5566  1  0.555540  0.694460  0.428600  1.0  -0.3088
  N  N5567  1  0.604740  0.645260  0.377900  1.0  -0.2892
  N  N5568  1  0.543410  0.206590  0.982800  1.0  -0.2881
  N  N5569  1  0.555540  0.194460  0.928600  1.0  -0.3088
  N  N5570  1  0.604740  0.145260  0.877900  1.0  -0.2892
  N  N5571  1  0.043410  0.543410  0.267200  1.0  -0.2872
  N  N5572  1  0.055540  0.555540  0.321400  1.0  -0.3111
  N  N5573  1  0.104740  0.604740  0.372100  1.0  -0.2885
  N  N5574  1  0.043410  0.043410  0.767200  1.0  -0.2872
  N  N5575  1  0.055540  0.055540  0.821400  1.0  -0.3111
  N  N5576  1  0.104740  0.104740  0.872100  1.0  -0.2885
