# generated using pymatgen
data_Cu2H24C41O8
_symmetry_space_group_name_H-M   'P 1'
_cell_length_a   58.26880000
_cell_length_b   58.26880000
_cell_length_c   58.26880000
_cell_angle_alpha   109.47100000
_cell_angle_beta   109.47100000
_cell_angle_gamma   109.47100000
_symmetry_Int_Tables_number   1
_chemical_formula_structural   Cu2H24C41O8
_chemical_formula_sum   'Cu96 H1152 C1968 O384'
_cell_volume   152296.48485919
_cell_formula_units_Z   48
loop_
 _symmetry_equiv_pos_site_id
 _symmetry_equiv_pos_as_xyz
  1  'x, y, z'
loop_
 _atom_site_type_symbol
 _atom_site_label
 _atom_site_symmetry_multiplicity
 _atom_site_fract_x
 _atom_site_fract_y
 _atom_site_fract_z
 _atom_site_occupancy
 _atom_site_charge
  Cu  Cu1  1  0.622880  0.437720  0.814840  1.0  0.9119
  Cu  Cu2  1  0.595250  0.437680  0.842430  1.0  0.9255
  Cu  Cu3  1  0.622880  0.808040  0.185160  1.0  0.9122
  Cu  Cu4  1  0.595250  0.752820  0.157570  1.0  0.9286
  Cu  Cu5  1  0.377120  0.562280  0.185160  1.0  0.9113
  Cu  Cu6  1  0.404750  0.562320  0.157570  1.0  0.9247
  Cu  Cu7  1  0.377120  0.191960  0.814840  1.0  0.9122
  Cu  Cu8  1  0.404750  0.247180  0.842430  1.0  0.9263
  Cu  Cu9  1  0.814840  0.622880  0.437720  1.0  0.9131
  Cu  Cu10  1  0.842430  0.595250  0.437680  1.0  0.9265
  Cu  Cu11  1  0.185160  0.622880  0.808040  1.0  0.9114
  Cu  Cu12  1  0.157570  0.595250  0.752820  1.0  0.926
  Cu  Cu13  1  0.185160  0.377120  0.562280  1.0  0.9125
  Cu  Cu14  1  0.157570  0.404750  0.562320  1.0  0.9248
  Cu  Cu15  1  0.814840  0.377120  0.191960  1.0  0.9111
  Cu  Cu16  1  0.842430  0.404750  0.247180  1.0  0.9253
  Cu  Cu17  1  0.437720  0.814840  0.622880  1.0  0.912
  Cu  Cu18  1  0.437680  0.842430  0.595250  1.0  0.9249
  Cu  Cu19  1  0.808040  0.185160  0.622880  1.0  0.913
  Cu  Cu20  1  0.752820  0.157570  0.595250  1.0  0.9238
  Cu  Cu21  1  0.562280  0.185160  0.377120  1.0  0.9119
  Cu  Cu22  1  0.562320  0.157570  0.404750  1.0  0.9249
  Cu  Cu23  1  0.191960  0.814840  0.377120  1.0  0.9119
  Cu  Cu24  1  0.247180  0.842430  0.404750  1.0  0.9273
  Cu  Cu25  1  0.191960  0.377120  0.814840  1.0  0.9122
  Cu  Cu26  1  0.247180  0.404750  0.842430  1.0  0.9271
  Cu  Cu27  1  0.562280  0.377120  0.185160  1.0  0.9095
  Cu  Cu28  1  0.562320  0.404750  0.157570  1.0  0.9263
  Cu  Cu29  1  0.808040  0.622880  0.185160  1.0  0.9143
  Cu  Cu30  1  0.752820  0.595250  0.157570  1.0  0.9238
  Cu  Cu31  1  0.437720  0.622880  0.814840  1.0  0.9115
  Cu  Cu32  1  0.437680  0.595250  0.842430  1.0  0.9257
  Cu  Cu33  1  0.622880  0.814840  0.437720  1.0  0.9131
  Cu  Cu34  1  0.595250  0.842430  0.437680  1.0  0.9245
  Cu  Cu35  1  0.622880  0.185160  0.808040  1.0  0.9115
  Cu  Cu36  1  0.595250  0.157570  0.752820  1.0  0.926
  Cu  Cu37  1  0.377120  0.185160  0.562280  1.0  0.9117
  Cu  Cu38  1  0.404750  0.157570  0.562320  1.0  0.9266
  Cu  Cu39  1  0.377120  0.814840  0.191960  1.0  0.9125
  Cu  Cu40  1  0.404750  0.842430  0.247180  1.0  0.9253
  Cu  Cu41  1  0.185160  0.808040  0.622880  1.0  0.9123
  Cu  Cu42  1  0.157570  0.752820  0.595250  1.0  0.9279
  Cu  Cu43  1  0.814840  0.437720  0.622880  1.0  0.9113
  Cu  Cu44  1  0.842430  0.437680  0.595250  1.0  0.9249
  Cu  Cu45  1  0.814840  0.191960  0.377120  1.0  0.9125
  Cu  Cu46  1  0.842430  0.247180  0.404750  1.0  0.9262
  Cu  Cu47  1  0.185160  0.562280  0.377120  1.0  0.9116
  Cu  Cu48  1  0.157570  0.562320  0.404750  1.0  0.9255
  Cu  Cu49  1  0.832940  0.365350  0.000000  1.0  0.9232
  Cu  Cu50  1  0.808830  0.318240  0.000000  1.0  0.9233
  Cu  Cu51  1  0.365350  0.832940  0.000000  1.0  0.9238
  Cu  Cu52  1  0.318240  0.808830  0.000000  1.0  0.923
  Cu  Cu53  1  0.634650  0.634650  0.467590  1.0  0.9233
  Cu  Cu54  1  0.681760  0.681760  0.490590  1.0  0.9219
  Cu  Cu55  1  0.167060  0.167060  0.532410  1.0  0.9196
  Cu  Cu56  1  0.191170  0.191170  0.509410  1.0  0.9192
  Cu  Cu57  1  0.000000  0.832940  0.365350  1.0  0.9205
  Cu  Cu58  1  0.000000  0.808830  0.318240  1.0  0.9223
  Cu  Cu59  1  0.000000  0.365350  0.832940  1.0  0.922
  Cu  Cu60  1  0.000000  0.318240  0.808830  1.0  0.9224
  Cu  Cu61  1  0.467590  0.634650  0.634650  1.0  0.9231
  Cu  Cu62  1  0.490590  0.681760  0.681760  1.0  0.9238
  Cu  Cu63  1  0.532410  0.167060  0.167060  1.0  0.9217
  Cu  Cu64  1  0.509410  0.191170  0.191170  1.0  0.9197
  Cu  Cu65  1  0.365350  0.000000  0.832940  1.0  0.9226
  Cu  Cu66  1  0.318240  0.000000  0.808830  1.0  0.9202
  Cu  Cu67  1  0.832940  0.000000  0.365350  1.0  0.9211
  Cu  Cu68  1  0.808830  0.000000  0.318240  1.0  0.9227
  Cu  Cu69  1  0.634650  0.467590  0.634650  1.0  0.9229
  Cu  Cu70  1  0.681760  0.490590  0.681760  1.0  0.9241
  Cu  Cu71  1  0.167060  0.532410  0.167060  1.0  0.9231
  Cu  Cu72  1  0.191170  0.509410  0.191170  1.0  0.9196
  Cu  Cu73  1  0.167060  0.634650  0.000000  1.0  0.9251
  Cu  Cu74  1  0.191170  0.681760  0.000000  1.0  0.923
  Cu  Cu75  1  0.634650  0.167060  0.000000  1.0  0.924
  Cu  Cu76  1  0.681760  0.191170  0.000000  1.0  0.9228
  Cu  Cu77  1  0.832940  0.832940  0.467590  1.0  0.9216
  Cu  Cu78  1  0.808830  0.808830  0.490590  1.0  0.9172
  Cu  Cu79  1  0.365350  0.365350  0.532410  1.0  0.9208
  Cu  Cu80  1  0.318240  0.318240  0.509410  1.0  0.9242
  Cu  Cu81  1  0.365350  0.532410  0.365350  1.0  0.9223
  Cu  Cu82  1  0.318240  0.509410  0.318240  1.0  0.9251
  Cu  Cu83  1  0.832940  0.467590  0.832940  1.0  0.9217
  Cu  Cu84  1  0.808830  0.490590  0.808830  1.0  0.921
  Cu  Cu85  1  0.167060  0.000000  0.634650  1.0  0.9237
  Cu  Cu86  1  0.191170  0.000000  0.681760  1.0  0.9222
  Cu  Cu87  1  0.634650  0.000000  0.167060  1.0  0.9225
  Cu  Cu88  1  0.681760  0.000000  0.191170  1.0  0.9205
  Cu  Cu89  1  0.467590  0.832940  0.832940  1.0  0.9228
  Cu  Cu90  1  0.490590  0.808830  0.808830  1.0  0.9195
  Cu  Cu91  1  0.532410  0.365350  0.365350  1.0  0.9214
  Cu  Cu92  1  0.509410  0.318240  0.318240  1.0  0.9257
  Cu  Cu93  1  0.000000  0.167060  0.634650  1.0  0.9223
  Cu  Cu94  1  0.000000  0.191170  0.681760  1.0  0.9206
  Cu  Cu95  1  0.000000  0.634650  0.167060  1.0  0.9244
  Cu  Cu96  1  0.000000  0.681760  0.191170  1.0  0.9206
  H  H97  1  0.656700  0.386900  0.839000  1.0  0.1076
  H  H98  1  0.663800  0.353400  0.847400  1.0  0.0997
  H  H99  1  0.595800  0.330000  0.856000  1.0  0.0953
  H  H100  1  0.589700  0.364900  0.850400  1.0  0.1139
  H  H101  1  0.677500  0.340300  0.886400  1.0  0.1112
  H  H102  1  0.646600  0.261300  0.868700  1.0  0.0924
  H  H103  1  0.594100  0.283800  0.832100  1.0  0.1091
  H  H104  1  0.717300  0.342300  0.900400  1.0  0.1157
  H  H105  1  0.760500  0.352200  0.932300  1.0  0.1172
  H  H106  1  0.722400  0.287800  0.941800  1.0  0.1152
  H  H107  1  0.680200  0.277600  0.909400  1.0  0.1039
  H  H108  1  0.600300  0.517300  0.664600  1.0  0.1049
  H  H109  1  0.588900  0.549600  0.686700  1.0  0.1207
  H  H110  1  0.664700  0.589600  0.756500  1.0  0.1185
  H  H111  1  0.675600  0.557000  0.733400  1.0  0.1041
  H  H112  1  0.643900  0.602000  0.779100  1.0  0.0994
  H  H113  1  0.636300  0.653100  0.823400  1.0  0.0953
  H  H114  1  0.631000  0.588900  0.816900  1.0  0.1049
  H  H115  1  0.582400  0.545200  0.844800  1.0  0.1147
  H  H116  1  0.583400  0.505700  0.844100  1.0  0.1118
  H  H117  1  0.620500  0.504200  0.796900  1.0  0.1181
  H  H118  1  0.617600  0.542900  0.797300  1.0  0.1012
  H  H119  1  0.547900  0.817700  0.161000  1.0  0.1087
  H  H120  1  0.506000  0.816400  0.152600  1.0  0.0997
  H  H121  1  0.474000  0.739800  0.144000  1.0  0.0956
  H  H122  1  0.514500  0.739300  0.149600  1.0  0.1152
  H  H123  1  0.453900  0.791100  0.113600  1.0  0.1106
  H  H124  1  0.392600  0.777900  0.131300  1.0  0.0936
  H  H125  1  0.451700  0.762000  0.167900  1.0  0.108
  H  H126  1  0.441900  0.816900  0.099600  1.0  0.115
  H  H127  1  0.419900  0.828200  0.067700  1.0  0.117
  H  H128  1  0.346000  0.780600  0.058200  1.0  0.1144
  H  H129  1  0.368200  0.770800  0.090600  1.0  0.1008
  H  H130  1  0.852700  0.935700  0.335400  1.0  0.1047
  H  H131  1  0.862900  0.902200  0.313300  1.0  0.1176
  H  H132  1  0.833100  0.908200  0.243500  1.0  0.1198
  H  H133  1  0.823600  0.942200  0.266600  1.0  0.1061
  H  H134  1  0.822900  0.864800  0.220900  1.0  0.0988
  H  H135  1  0.829700  0.812900  0.176600  1.0  0.0954
  H  H136  1  0.772000  0.814100  0.183100  1.0  0.1055
  H  H137  1  0.700400  0.737600  0.155200  1.0  0.1125
  H  H138  1  0.661600  0.739300  0.155900  1.0  0.1126
  H  H139  1  0.707300  0.823600  0.203100  1.0  0.1186
  H  H140  1  0.745600  0.820300  0.202700  1.0  0.0997
  H  H141  1  0.452100  0.613100  0.269800  1.0  0.1079
  H  H142  1  0.494000  0.646600  0.310400  1.0  0.0984
  H  H143  1  0.526000  0.670000  0.265800  1.0  0.0964
  H  H144  1  0.485500  0.635100  0.224800  1.0  0.115
  H  H145  1  0.546100  0.659700  0.337200  1.0  0.1085
  H  H146  1  0.607400  0.738700  0.385300  1.0  0.093
  H  H147  1  0.548300  0.716200  0.310300  1.0  0.1077
  H  H148  1  0.558100  0.657700  0.375000  1.0  0.1139
  H  H149  1  0.580100  0.647800  0.408300  1.0  0.1161
  H  H150  1  0.654000  0.712200  0.434600  1.0  0.1119
  H  H151  1  0.631800  0.722400  0.402600  1.0  0.1019
  H  H152  1  0.147300  0.482700  0.083000  1.0  0.106
  H  H153  1  0.137100  0.450400  0.039300  1.0  0.1212
  H  H154  1  0.166900  0.410400  0.075100  1.0  0.1206
  H  H155  1  0.176400  0.443000  0.118600  1.0  0.1053
  H  H156  1  0.177100  0.398000  0.041900  1.0  0.0996
  H  H157  1  0.170300  0.346900  0.983200  1.0  0.0917
  H  H158  1  0.228000  0.411100  0.042100  1.0  0.1051
  H  H159  1  0.299600  0.454800  0.037200  1.0  0.1129
  H  H160  1  0.338400  0.494300  0.077700  1.0  0.1118
  H  H161  1  0.292700  0.495800  0.116300  1.0  0.1165
  H  H162  1  0.254400  0.457100  0.074700  1.0  0.1
  H  H163  1  0.343300  0.182300  0.730200  1.0  0.1079
  H  H164  1  0.336200  0.183600  0.689600  1.0  0.0983
  H  H165  1  0.404200  0.260200  0.734200  1.0  0.095
  H  H166  1  0.410300  0.260700  0.775200  1.0  0.1142
  H  H167  1  0.322500  0.208900  0.662800  1.0  0.1087
  H  H168  1  0.353400  0.222100  0.614700  1.0  0.0926
  H  H169  1  0.405900  0.238000  0.689700  1.0  0.1079
  H  H170  1  0.282700  0.183100  0.625000  1.0  0.1126
  H  H171  1  0.239500  0.171800  0.591700  1.0  0.1158
  H  H172  1  0.277600  0.219400  0.565400  1.0  0.1124
  H  H173  1  0.319800  0.229200  0.597400  1.0  0.1023
  H  H174  1  0.399700  0.064300  0.917000  1.0  0.1057
  H  H175  1  0.411100  0.097800  0.960700  1.0  0.1205
  H  H176  1  0.335300  0.091800  0.924900  1.0  0.1202
  H  H177  1  0.324400  0.057800  0.881400  1.0  0.1059
  H  H178  1  0.356100  0.135200  0.958100  1.0  0.0989
  H  H179  1  0.363700  0.187100  0.016800  1.0  0.1002
  H  H180  1  0.369000  0.185900  0.957900  1.0  0.1061
  H  H181  1  0.417600  0.262400  0.962800  1.0  0.1114
  H  H182  1  0.416600  0.260700  0.922300  1.0  0.111
  H  H183  1  0.379500  0.176400  0.883700  1.0  0.1193
  H  H184  1  0.382400  0.179700  0.925300  1.0  0.0989
  H  H185  1  0.839000  0.656700  0.386900  1.0  0.108
  H  H186  1  0.847400  0.663800  0.353400  1.0  0.0989
  H  H187  1  0.856000  0.595800  0.330000  1.0  0.0943
  H  H188  1  0.850400  0.589700  0.364900  1.0  0.1139
  H  H189  1  0.886400  0.677500  0.340300  1.0  0.109
  H  H190  1  0.868700  0.646600  0.261300  1.0  0.0941
  H  H191  1  0.832100  0.594100  0.283800  1.0  0.1075
  H  H192  1  0.900400  0.717300  0.342300  1.0  0.1155
  H  H193  1  0.932300  0.760500  0.352200  1.0  0.1167
  H  H194  1  0.941800  0.722400  0.287800  1.0  0.1144
  H  H195  1  0.909400  0.680200  0.277600  1.0  0.103
  H  H196  1  0.664600  0.600300  0.517300  1.0  0.1051
  H  H197  1  0.686700  0.588900  0.549600  1.0  0.1201
  H  H198  1  0.756500  0.664700  0.589600  1.0  0.1201
  H  H199  1  0.733400  0.675600  0.557000  1.0  0.1042
  H  H200  1  0.779100  0.643900  0.602000  1.0  0.0994
  H  H201  1  0.823400  0.636300  0.653100  1.0  0.0966
  H  H202  1  0.816900  0.631000  0.588900  1.0  0.1059
  H  H203  1  0.844800  0.582400  0.545200  1.0  0.1131
  H  H204  1  0.844100  0.583400  0.505700  1.0  0.1106
  H  H205  1  0.796900  0.620500  0.504200  1.0  0.1177
  H  H206  1  0.797300  0.617600  0.542900  1.0  0.0996
  H  H207  1  0.161000  0.547900  0.817700  1.0  0.1084
  H  H208  1  0.152600  0.506000  0.816400  1.0  0.099
  H  H209  1  0.144000  0.474000  0.739800  1.0  0.0947
  H  H210  1  0.149600  0.514500  0.739300  1.0  0.1142
  H  H211  1  0.113600  0.453900  0.791100  1.0  0.1101
  H  H212  1  0.131300  0.392600  0.777900  1.0  0.0937
  H  H213  1  0.167900  0.451700  0.762000  1.0  0.1082
  H  H214  1  0.099600  0.441900  0.816900  1.0  0.1149
  H  H215  1  0.067700  0.419900  0.828200  1.0  0.1174
  H  H216  1  0.058200  0.346000  0.780600  1.0  0.1147
  H  H217  1  0.090600  0.368200  0.770800  1.0  0.1011
  H  H218  1  0.335400  0.852700  0.935700  1.0  0.105
  H  H219  1  0.313300  0.862900  0.902200  1.0  0.1171
  H  H220  1  0.243500  0.833100  0.908200  1.0  0.1198
  H  H221  1  0.266600  0.823600  0.942200  1.0  0.1062
  H  H222  1  0.220900  0.822900  0.864800  1.0  0.0997
  H  H223  1  0.176600  0.829700  0.812900  1.0  0.0944
  H  H224  1  0.183100  0.772000  0.814100  1.0  0.1059
  H  H225  1  0.155200  0.700400  0.737600  1.0  0.1133
  H  H226  1  0.155900  0.661600  0.739300  1.0  0.1126
  H  H227  1  0.203100  0.707300  0.823600  1.0  0.1178
  H  H228  1  0.202700  0.745600  0.820300  1.0  0.0999
  H  H229  1  0.269800  0.452100  0.613100  1.0  0.1085
  H  H230  1  0.310400  0.494000  0.646600  1.0  0.0995
  H  H231  1  0.265800  0.526000  0.670000  1.0  0.0958
  H  H232  1  0.224800  0.485500  0.635100  1.0  0.1144
  H  H233  1  0.337200  0.546100  0.659700  1.0  0.1083
  H  H234  1  0.385300  0.607400  0.738700  1.0  0.0924
  H  H235  1  0.310300  0.548300  0.716200  1.0  0.1084
  H  H236  1  0.375000  0.558100  0.657700  1.0  0.1141
  H  H237  1  0.408300  0.580100  0.647800  1.0  0.1165
  H  H238  1  0.434600  0.654000  0.712200  1.0  0.1099
  H  H239  1  0.402600  0.631800  0.722400  1.0  0.1029
  H  H240  1  0.083000  0.147300  0.482700  1.0  0.1046
  H  H241  1  0.039300  0.137100  0.450400  1.0  0.1226
  H  H242  1  0.075100  0.166900  0.410400  1.0  0.1202
  H  H243  1  0.118600  0.176400  0.443000  1.0  0.107
  H  H244  1  0.041900  0.177100  0.398000  1.0  0.0994
  H  H245  1  0.983200  0.170300  0.346900  1.0  0.0942
  H  H246  1  0.042100  0.228000  0.411100  1.0  0.1053
  H  H247  1  0.037200  0.299600  0.454800  1.0  0.1124
  H  H248  1  0.077700  0.338400  0.494300  1.0  0.1119
  H  H249  1  0.116300  0.292700  0.495800  1.0  0.1166
  H  H250  1  0.074700  0.254400  0.457100  1.0  0.0994
  H  H251  1  0.730200  0.343300  0.182300  1.0  0.1076
  H  H252  1  0.689600  0.336200  0.183600  1.0  0.0982
  H  H253  1  0.734200  0.404200  0.260200  1.0  0.0955
  H  H254  1  0.775200  0.410300  0.260700  1.0  0.1147
  H  H255  1  0.662800  0.322500  0.208900  1.0  0.1086
  H  H256  1  0.614700  0.353400  0.222100  1.0  0.0924
  H  H257  1  0.689700  0.405900  0.238000  1.0  0.1086
  H  H258  1  0.625000  0.282700  0.183100  1.0  0.1144
  H  H259  1  0.591700  0.239500  0.171800  1.0  0.1157
  H  H260  1  0.565400  0.277600  0.219400  1.0  0.1136
  H  H261  1  0.597400  0.319800  0.229200  1.0  0.1024
  H  H262  1  0.917000  0.399700  0.064300  1.0  0.106
  H  H263  1  0.960700  0.411100  0.097800  1.0  0.1218
  H  H264  1  0.924900  0.335300  0.091800  1.0  0.1199
  H  H265  1  0.881400  0.324400  0.057800  1.0  0.1063
  H  H266  1  0.958100  0.356100  0.135200  1.0  0.0985
  H  H267  1  0.016800  0.363700  0.187100  1.0  0.0922
  H  H268  1  0.957900  0.369000  0.185900  1.0  0.1052
  H  H269  1  0.962800  0.417600  0.262400  1.0  0.1129
  H  H270  1  0.922300  0.416600  0.260700  1.0  0.1115
  H  H271  1  0.883700  0.379500  0.176400  1.0  0.1187
  H  H272  1  0.925300  0.382400  0.179700  1.0  0.099
  H  H273  1  0.386900  0.839000  0.656700  1.0  0.1082
  H  H274  1  0.353400  0.847400  0.663800  1.0  0.0984
  H  H275  1  0.330000  0.856000  0.595800  1.0  0.0948
  H  H276  1  0.364900  0.850400  0.589700  1.0  0.1133
  H  H277  1  0.340300  0.886400  0.677500  1.0  0.111
  H  H278  1  0.261300  0.868700  0.646600  1.0  0.0922
  H  H279  1  0.283800  0.832100  0.594100  1.0  0.1098
  H  H280  1  0.342300  0.900400  0.717300  1.0  0.1141
  H  H281  1  0.352200  0.932300  0.760500  1.0  0.1173
  H  H282  1  0.287800  0.941800  0.722400  1.0  0.1143
  H  H283  1  0.277600  0.909400  0.680200  1.0  0.1027
  H  H284  1  0.517300  0.664600  0.600300  1.0  0.1056
  H  H285  1  0.549600  0.686700  0.588900  1.0  0.1205
  H  H286  1  0.589600  0.756500  0.664700  1.0  0.1203
  H  H287  1  0.557000  0.733400  0.675600  1.0  0.1046
  H  H288  1  0.602000  0.779100  0.643900  1.0  0.0998
  H  H289  1  0.653100  0.823400  0.636300  1.0  0.0957
  H  H290  1  0.588900  0.816900  0.631000  1.0  0.1055
  H  H291  1  0.545200  0.844800  0.582400  1.0  0.1141
  H  H292  1  0.505700  0.844100  0.583400  1.0  0.1119
  H  H293  1  0.504200  0.796900  0.620500  1.0  0.1165
  H  H294  1  0.542900  0.797300  0.617600  1.0  0.1019
  H  H295  1  0.817700  0.161000  0.547900  1.0  0.1082
  H  H296  1  0.816400  0.152600  0.506000  1.0  0.0988
  H  H297  1  0.739800  0.144000  0.474000  1.0  0.0955
  H  H298  1  0.739300  0.149600  0.514500  1.0  0.1148
  H  H299  1  0.791100  0.113600  0.453900  1.0  0.1112
  H  H300  1  0.777900  0.131300  0.392600  1.0  0.0946
  H  H301  1  0.762000  0.167900  0.451700  1.0  0.1072
  H  H302  1  0.816900  0.099600  0.441900  1.0  0.1145
  H  H303  1  0.828200  0.067700  0.419900  1.0  0.1166
  H  H304  1  0.780600  0.058200  0.346000  1.0  0.1146
  H  H305  1  0.770800  0.090600  0.368200  1.0  0.1014
  H  H306  1  0.935700  0.335400  0.852700  1.0  0.1052
  H  H307  1  0.902200  0.313300  0.862900  1.0  0.1161
  H  H308  1  0.908200  0.243500  0.833100  1.0  0.1194
  H  H309  1  0.942200  0.266600  0.823600  1.0  0.106
  H  H310  1  0.864800  0.220900  0.822900  1.0  0.0996
  H  H311  1  0.812900  0.176600  0.829700  1.0  0.097
  H  H312  1  0.814100  0.183100  0.772000  1.0  0.1064
  H  H313  1  0.737600  0.155200  0.700400  1.0  0.1123
  H  H314  1  0.739300  0.155900  0.661600  1.0  0.112
  H  H315  1  0.823600  0.203100  0.707300  1.0  0.1187
  H  H316  1  0.820300  0.202700  0.745600  1.0  0.0993
  H  H317  1  0.613100  0.269800  0.452100  1.0  0.1069
  H  H318  1  0.646600  0.310400  0.494000  1.0  0.0994
  H  H319  1  0.670000  0.265800  0.526000  1.0  0.0955
  H  H320  1  0.635100  0.224800  0.485500  1.0  0.1153
  H  H321  1  0.659700  0.337200  0.546100  1.0  0.1089
  H  H322  1  0.738700  0.385300  0.607400  1.0  0.0937
  H  H323  1  0.716200  0.310300  0.548300  1.0  0.1072
  H  H324  1  0.657700  0.375000  0.558100  1.0  0.1143
  H  H325  1  0.647800  0.408300  0.580100  1.0  0.1161
  H  H326  1  0.712200  0.434600  0.654000  1.0  0.1106
  H  H327  1  0.722400  0.402600  0.631800  1.0  0.1038
  H  H328  1  0.482700  0.083000  0.147300  1.0  0.1059
  H  H329  1  0.450400  0.039300  0.137100  1.0  0.1206
  H  H330  1  0.410400  0.075100  0.166900  1.0  0.1195
  H  H331  1  0.443000  0.118600  0.176400  1.0  0.1066
  H  H332  1  0.398000  0.041900  0.177100  1.0  0.0987
  H  H333  1  0.346900  0.983200  0.170300  1.0  0.0955
  H  H334  1  0.411100  0.042100  0.228000  1.0  0.1047
  H  H335  1  0.454800  0.037200  0.299600  1.0  0.1125
  H  H336  1  0.494300  0.077700  0.338400  1.0  0.1119
  H  H337  1  0.495800  0.116300  0.292700  1.0  0.1166
  H  H338  1  0.457100  0.074700  0.254400  1.0  0.1001
  H  H339  1  0.182300  0.730200  0.343300  1.0  0.1086
  H  H340  1  0.183600  0.689600  0.336200  1.0  0.099
  H  H341  1  0.260200  0.734200  0.404200  1.0  0.095
  H  H342  1  0.260700  0.775200  0.410300  1.0  0.114
  H  H343  1  0.208900  0.662800  0.322500  1.0  0.1091
  H  H344  1  0.222100  0.614700  0.353400  1.0  0.0908
  H  H345  1  0.238000  0.689700  0.405900  1.0  0.108
  H  H346  1  0.183100  0.625000  0.282700  1.0  0.1136
  H  H347  1  0.171800  0.591700  0.239500  1.0  0.1165
  H  H348  1  0.219400  0.565400  0.277600  1.0  0.1118
  H  H349  1  0.229200  0.597400  0.319800  1.0  0.1029
  H  H350  1  0.064300  0.917000  0.399700  1.0  0.105
  H  H351  1  0.097800  0.960700  0.411100  1.0  0.1208
  H  H352  1  0.091800  0.924900  0.335300  1.0  0.1205
  H  H353  1  0.057800  0.881400  0.324400  1.0  0.1058
  H  H354  1  0.135200  0.958100  0.356100  1.0  0.0997
  H  H355  1  0.187100  0.016800  0.363700  1.0  0.0952
  H  H356  1  0.185900  0.957900  0.369000  1.0  0.1062
  H  H357  1  0.262400  0.962800  0.417600  1.0  0.1112
  H  H358  1  0.260700  0.922300  0.416600  1.0  0.111
  H  H359  1  0.176400  0.883700  0.379500  1.0  0.119
  H  H360  1  0.179700  0.925300  0.382400  1.0  0.0997
  H  H361  1  0.182300  0.452100  0.839000  1.0  0.1082
  H  H362  1  0.183600  0.494000  0.847400  1.0  0.0974
  H  H363  1  0.260200  0.526000  0.856000  1.0  0.0965
  H  H364  1  0.260700  0.485500  0.850400  1.0  0.1145
  H  H365  1  0.208900  0.546100  0.886400  1.0  0.111
  H  H366  1  0.222100  0.607400  0.868700  1.0  0.0929
  H  H367  1  0.238000  0.548300  0.832100  1.0  0.1074
  H  H368  1  0.183100  0.558100  0.900400  1.0  0.1152
  H  H369  1  0.171800  0.580100  0.932300  1.0  0.1176
  H  H370  1  0.219400  0.654000  0.941800  1.0  0.1135
  H  H371  1  0.229200  0.631800  0.909400  1.0  0.1013
  H  H372  1  0.064300  0.147300  0.664600  1.0  0.1045
  H  H373  1  0.097800  0.137100  0.686700  1.0  0.1167
  H  H374  1  0.091800  0.166900  0.756500  1.0  0.1195
  H  H375  1  0.057800  0.176400  0.733400  1.0  0.1063
  H  H376  1  0.135200  0.177100  0.779100  1.0  0.0993
  H  H377  1  0.187100  0.170300  0.823400  1.0  0.0971
  H  H378  1  0.185900  0.228000  0.816900  1.0  0.106
  H  H379  1  0.262400  0.299600  0.844800  1.0  0.1117
  H  H380  1  0.260700  0.338400  0.844100  1.0  0.1127
  H  H381  1  0.176400  0.292700  0.796900  1.0  0.1183
  H  H382  1  0.179700  0.254400  0.797300  1.0  0.099
  H  H383  1  0.613100  0.343300  0.161000  1.0  0.1073
  H  H384  1  0.646600  0.336200  0.152600  1.0  0.0974
  H  H385  1  0.670000  0.404200  0.144000  1.0  0.0944
  H  H386  1  0.635100  0.410300  0.149600  1.0  0.1159
  H  H387  1  0.659700  0.322500  0.113600  1.0  0.1111
  H  H388  1  0.738700  0.353400  0.131300  1.0  0.0937
  H  H389  1  0.716200  0.405900  0.167900  1.0  0.1093
  H  H390  1  0.657700  0.282700  0.099600  1.0  0.116
  H  H391  1  0.647800  0.239500  0.067700  1.0  0.1165
  H  H392  1  0.712200  0.277600  0.058200  1.0  0.1154
  H  H393  1  0.722400  0.319800  0.090600  1.0  0.1033
  H  H394  1  0.482700  0.399700  0.335400  1.0  0.1058
  H  H395  1  0.450400  0.411100  0.313300  1.0  0.1208
  H  H396  1  0.410400  0.335300  0.243500  1.0  0.1196
  H  H397  1  0.443000  0.324400  0.266600  1.0  0.105
  H  H398  1  0.398000  0.356100  0.220900  1.0  0.0994
  H  H399  1  0.346900  0.363700  0.176600  1.0  0.0917
  H  H400  1  0.411100  0.369000  0.183100  1.0  0.1044
  H  H401  1  0.454800  0.417600  0.155200  1.0  0.1143
  H  H402  1  0.494300  0.416600  0.155900  1.0  0.1114
  H  H403  1  0.495800  0.379500  0.203100  1.0  0.118
  H  H404  1  0.457100  0.382400  0.202700  1.0  0.0991
  H  H405  1  0.817700  0.656700  0.269800  1.0  0.1075
  H  H406  1  0.816400  0.663800  0.310400  1.0  0.0981
  H  H407  1  0.739800  0.595800  0.265800  1.0  0.095
  H  H408  1  0.739300  0.589700  0.224800  1.0  0.1142
  H  H409  1  0.791100  0.677500  0.337200  1.0  0.1068
  H  H410  1  0.777900  0.646600  0.385300  1.0  0.0924
  H  H411  1  0.762000  0.594100  0.310300  1.0  0.107
  H  H412  1  0.816900  0.717300  0.375000  1.0  0.1144
  H  H413  1  0.828200  0.760500  0.408300  1.0  0.1159
  H  H414  1  0.780600  0.722400  0.434600  1.0  0.1126
  H  H415  1  0.770800  0.680200  0.402600  1.0  0.1029
  H  H416  1  0.935700  0.600300  0.083000  1.0  0.1041
  H  H417  1  0.902200  0.588900  0.039300  1.0  0.1204
  H  H418  1  0.908200  0.664700  0.075100  1.0  0.121
  H  H419  1  0.942200  0.675600  0.118600  1.0  0.1052
  H  H420  1  0.864800  0.643900  0.041900  1.0  0.1
  H  H421  1  0.812900  0.636300  0.983200  1.0  0.0967
  H  H422  1  0.814100  0.631000  0.042100  1.0  0.1072
  H  H423  1  0.737600  0.582400  0.037200  1.0  0.1114
  H  H424  1  0.739300  0.583400  0.077700  1.0  0.1109
  H  H425  1  0.823600  0.620500  0.116300  1.0  0.1187
  H  H426  1  0.820300  0.617600  0.074700  1.0  0.0986
  H  H427  1  0.386900  0.547900  0.730200  1.0  0.1076
  H  H428  1  0.353400  0.506000  0.689600  1.0  0.099
  H  H429  1  0.330000  0.474000  0.734200  1.0  0.096
  H  H430  1  0.364900  0.514500  0.775200  1.0  0.1149
  H  H431  1  0.340300  0.453900  0.662800  1.0  0.1083
  H  H432  1  0.261300  0.392600  0.614700  1.0  0.0927
  H  H433  1  0.283800  0.451700  0.689700  1.0  0.1081
  H  H434  1  0.342300  0.441900  0.625000  1.0  0.1149
  H  H435  1  0.352200  0.419900  0.591700  1.0  0.1167
  H  H436  1  0.287800  0.346000  0.565400  1.0  0.1111
  H  H437  1  0.277600  0.368200  0.597400  1.0  0.1028
  H  H438  1  0.517300  0.852700  0.917000  1.0  0.1046
  H  H439  1  0.549600  0.862900  0.960700  1.0  0.1209
  H  H440  1  0.589600  0.833100  0.924900  1.0  0.1202
  H  H441  1  0.557000  0.823600  0.881400  1.0  0.1066
  H  H442  1  0.602000  0.822900  0.958100  1.0  0.0999
  H  H443  1  0.653100  0.829700  0.016800  1.0  0.0956
  H  H444  1  0.588900  0.772000  0.957900  1.0  0.105
  H  H445  1  0.545200  0.700400  0.962800  1.0  0.1128
  H  H446  1  0.505700  0.661600  0.922300  1.0  0.1105
  H  H447  1  0.504200  0.707300  0.883700  1.0  0.1164
  H  H448  1  0.542900  0.745600  0.925300  1.0  0.0997
  H  H449  1  0.547900  0.730200  0.386900  1.0  0.109
  H  H450  1  0.506000  0.689600  0.353400  1.0  0.0982
  H  H451  1  0.474000  0.734200  0.330000  1.0  0.0962
  H  H452  1  0.514500  0.775200  0.364900  1.0  0.116
  H  H453  1  0.453900  0.662800  0.340300  1.0  0.1095
  H  H454  1  0.392600  0.614700  0.261300  1.0  0.0917
  H  H455  1  0.451700  0.689700  0.283800  1.0  0.1075
  H  H456  1  0.441900  0.625000  0.342300  1.0  0.1139
  H  H457  1  0.419900  0.591700  0.352200  1.0  0.1167
  H  H458  1  0.346000  0.565400  0.287800  1.0  0.1103
  H  H459  1  0.368200  0.597400  0.277600  1.0  0.1022
  H  H460  1  0.852700  0.917000  0.517300  1.0  0.1058
  H  H461  1  0.862900  0.960700  0.549600  1.0  0.1198
  H  H462  1  0.833100  0.924900  0.589600  1.0  0.1215
  H  H463  1  0.823600  0.881400  0.557000  1.0  0.1057
  H  H464  1  0.822900  0.958100  0.602000  1.0  0.0997
  H  H465  1  0.829700  0.016800  0.653100  1.0  0.0966
  H  H466  1  0.772000  0.957900  0.588900  1.0  0.1056
  H  H467  1  0.700400  0.962800  0.545200  1.0  0.1112
  H  H468  1  0.661600  0.922300  0.505700  1.0  0.1097
  H  H469  1  0.707300  0.883700  0.504200  1.0  0.1169
  H  H470  1  0.745600  0.925300  0.542900  1.0  0.0987
  H  H471  1  0.656700  0.269800  0.817700  1.0  0.1062
  H  H472  1  0.663800  0.310400  0.816400  1.0  0.0984
  H  H473  1  0.595800  0.265800  0.739800  1.0  0.0951
  H  H474  1  0.589700  0.224800  0.739300  1.0  0.1143
  H  H475  1  0.677500  0.337200  0.791100  1.0  0.1085
  H  H476  1  0.646600  0.385300  0.777900  1.0  0.0927
  H  H477  1  0.594100  0.310300  0.762000  1.0  0.1069
  H  H478  1  0.717300  0.375000  0.816900  1.0  0.1148
  H  H479  1  0.760500  0.408300  0.828200  1.0  0.1162
  H  H480  1  0.722400  0.434600  0.780600  1.0  0.1122
  H  H481  1  0.680200  0.402600  0.770800  1.0  0.1032
  H  H482  1  0.600300  0.083000  0.935700  1.0  0.1044
  H  H483  1  0.588900  0.039300  0.902200  1.0  0.1196
  H  H484  1  0.664700  0.075100  0.908200  1.0  0.1195
  H  H485  1  0.675600  0.118600  0.942200  1.0  0.1073
  H  H486  1  0.643900  0.041900  0.864800  1.0  0.0992
  H  H487  1  0.636300  0.983200  0.812900  1.0  0.097
  H  H488  1  0.631000  0.042100  0.814100  1.0  0.1056
  H  H489  1  0.582400  0.037200  0.737600  1.0  0.1108
  H  H490  1  0.583400  0.077700  0.739300  1.0  0.1124
  H  H491  1  0.620500  0.116300  0.823600  1.0  0.1191
  H  H492  1  0.617600  0.074700  0.820300  1.0  0.0996
  H  H493  1  0.343300  0.161000  0.613100  1.0  0.1082
  H  H494  1  0.336200  0.152600  0.646600  1.0  0.0972
  H  H495  1  0.404200  0.144000  0.670000  1.0  0.094
  H  H496  1  0.410300  0.149600  0.635100  1.0  0.1147
  H  H497  1  0.322500  0.113600  0.659700  1.0  0.1113
  H  H498  1  0.353400  0.131300  0.738700  1.0  0.0932
  H  H499  1  0.405900  0.167900  0.716200  1.0  0.1102
  H  H500  1  0.282700  0.099600  0.657700  1.0  0.1148
  H  H501  1  0.239500  0.067700  0.647800  1.0  0.1168
  H  H502  1  0.277600  0.058200  0.712200  1.0  0.1145
  H  H503  1  0.319800  0.090600  0.722400  1.0  0.104
  H  H504  1  0.399700  0.335400  0.482700  1.0  0.1055
  H  H505  1  0.411100  0.313300  0.450400  1.0  0.1202
  H  H506  1  0.335300  0.243500  0.410400  1.0  0.1195
  H  H507  1  0.324400  0.266600  0.443000  1.0  0.1043
  H  H508  1  0.356100  0.220900  0.398000  1.0  0.1005
  H  H509  1  0.363700  0.176600  0.346900  1.0  0.0948
  H  H510  1  0.369000  0.183100  0.411100  1.0  0.1054
  H  H511  1  0.417600  0.155200  0.454800  1.0  0.1134
  H  H512  1  0.416600  0.155900  0.494300  1.0  0.1109
  H  H513  1  0.379500  0.203100  0.495800  1.0  0.1176
  H  H514  1  0.382400  0.202700  0.457100  1.0  0.1005
  H  H515  1  0.452100  0.839000  0.182300  1.0  0.1077
  H  H516  1  0.494000  0.847400  0.183600  1.0  0.0981
  H  H517  1  0.526000  0.856000  0.260200  1.0  0.0968
  H  H518  1  0.485500  0.850400  0.260700  1.0  0.1138
  H  H519  1  0.546100  0.886400  0.208900  1.0  0.111
  H  H520  1  0.607400  0.868700  0.222100  1.0  0.0948
  H  H521  1  0.548300  0.832100  0.238000  1.0  0.1081
  H  H522  1  0.558100  0.900400  0.183100  1.0  0.1142
  H  H523  1  0.580100  0.932300  0.171800  1.0  0.1173
  H  H524  1  0.654000  0.941800  0.219400  1.0  0.1145
  H  H525  1  0.631800  0.909400  0.229200  1.0  0.1007
  H  H526  1  0.147300  0.664600  0.064300  1.0  0.1052
  H  H527  1  0.137100  0.686700  0.097800  1.0  0.1164
  H  H528  1  0.166900  0.756500  0.091800  1.0  0.12
  H  H529  1  0.176400  0.733400  0.057800  1.0  0.1063
  H  H530  1  0.177100  0.779100  0.135200  1.0  0.1006
  H  H531  1  0.170300  0.823400  0.187100  1.0  0.0954
  H  H532  1  0.228000  0.816900  0.185900  1.0  0.1056
  H  H533  1  0.299600  0.844800  0.262400  1.0  0.1136
  H  H534  1  0.338400  0.844100  0.260700  1.0  0.1127
  H  H535  1  0.292700  0.796900  0.176400  1.0  0.1168
  H  H536  1  0.254400  0.797300  0.179700  1.0  0.0998
  H  H537  1  0.269800  0.817700  0.656700  1.0  0.1083
  H  H538  1  0.310400  0.816400  0.663800  1.0  0.0977
  H  H539  1  0.265800  0.739800  0.595800  1.0  0.0946
  H  H540  1  0.224800  0.739300  0.589700  1.0  0.1147
  H  H541  1  0.337200  0.791100  0.677500  1.0  0.1098
  H  H542  1  0.385300  0.777900  0.646600  1.0  0.0918
  H  H543  1  0.310300  0.762000  0.594100  1.0  0.1083
  H  H544  1  0.375000  0.816900  0.717300  1.0  0.1143
  H  H545  1  0.408300  0.828200  0.760500  1.0  0.1167
  H  H546  1  0.434600  0.780600  0.722400  1.0  0.112
  H  H547  1  0.402600  0.770800  0.680200  1.0  0.101
  H  H548  1  0.083000  0.935700  0.600300  1.0  0.1047
  H  H549  1  0.039300  0.902200  0.588900  1.0  0.1204
  H  H550  1  0.075100  0.908200  0.664700  1.0  0.1206
  H  H551  1  0.118600  0.942200  0.675600  1.0  0.1066
  H  H552  1  0.041900  0.864800  0.643900  1.0  0.0992
  H  H553  1  0.983200  0.812900  0.636300  1.0  0.0977
  H  H554  1  0.042100  0.814100  0.631000  1.0  0.1057
  H  H555  1  0.037200  0.737600  0.582400  1.0  0.111
  H  H556  1  0.077700  0.739300  0.583400  1.0  0.1118
  H  H557  1  0.116300  0.823600  0.620500  1.0  0.1197
  H  H558  1  0.074700  0.820300  0.617600  1.0  0.0996
  H  H559  1  0.730200  0.386900  0.547900  1.0  0.1073
  H  H560  1  0.689600  0.353400  0.506000  1.0  0.0977
  H  H561  1  0.734200  0.330000  0.474000  1.0  0.0959
  H  H562  1  0.775200  0.364900  0.514500  1.0  0.1157
  H  H563  1  0.662800  0.340300  0.453900  1.0  0.109
  H  H564  1  0.614700  0.261300  0.392600  1.0  0.0935
  H  H565  1  0.689700  0.283800  0.451700  1.0  0.1071
  H  H566  1  0.625000  0.342300  0.441900  1.0  0.1152
  H  H567  1  0.591700  0.352200  0.419900  1.0  0.1165
  H  H568  1  0.565400  0.287800  0.346000  1.0  0.1107
  H  H569  1  0.597400  0.277600  0.368200  1.0  0.1029
  H  H570  1  0.917000  0.517300  0.852700  1.0  0.1044
  H  H571  1  0.960700  0.549600  0.862900  1.0  0.1213
  H  H572  1  0.924900  0.589600  0.833100  1.0  0.1208
  H  H573  1  0.881400  0.557000  0.823600  1.0  0.1061
  H  H574  1  0.958100  0.602000  0.822900  1.0  0.0995
  H  H575  1  0.016800  0.653100  0.829700  1.0  0.0947
  H  H576  1  0.957900  0.588900  0.772000  1.0  0.105
  H  H577  1  0.962800  0.545200  0.700400  1.0  0.1131
  H  H578  1  0.922300  0.505700  0.661600  1.0  0.1116
  H  H579  1  0.883700  0.504200  0.707300  1.0  0.1172
  H  H580  1  0.925300  0.542900  0.745600  1.0  0.0987
  H  H581  1  0.839000  0.182300  0.452100  1.0  0.1077
  H  H582  1  0.847400  0.183600  0.494000  1.0  0.0977
  H  H583  1  0.856000  0.260200  0.526000  1.0  0.0957
  H  H584  1  0.850400  0.260700  0.485500  1.0  0.115
  H  H585  1  0.886400  0.208900  0.546100  1.0  0.1096
  H  H586  1  0.868700  0.222100  0.607400  1.0  0.0948
  H  H587  1  0.832100  0.238000  0.548300  1.0  0.1073
  H  H588  1  0.900400  0.183100  0.558100  1.0  0.1133
  H  H589  1  0.932300  0.171800  0.580100  1.0  0.1165
  H  H590  1  0.941800  0.219400  0.654000  1.0  0.1146
  H  H591  1  0.909400  0.229200  0.631800  1.0  0.1016
  H  H592  1  0.664600  0.064300  0.147300  1.0  0.1045
  H  H593  1  0.686700  0.097800  0.137100  1.0  0.1191
  H  H594  1  0.756500  0.091800  0.166900  1.0  0.1192
  H  H595  1  0.733400  0.057800  0.176400  1.0  0.1058
  H  H596  1  0.779100  0.135200  0.177100  1.0  0.0999
  H  H597  1  0.823400  0.187100  0.170300  1.0  0.0974
  H  H598  1  0.816900  0.185900  0.228000  1.0  0.1053
  H  H599  1  0.844800  0.262400  0.299600  1.0  0.1128
  H  H600  1  0.844100  0.260700  0.338400  1.0  0.1111
  H  H601  1  0.796900  0.176400  0.292700  1.0  0.1182
  H  H602  1  0.797300  0.179700  0.254400  1.0  0.0994
  H  H603  1  0.161000  0.613100  0.343300  1.0  0.1077
  H  H604  1  0.152600  0.646600  0.336200  1.0  0.0981
  H  H605  1  0.144000  0.670000  0.404200  1.0  0.095
  H  H606  1  0.149600  0.635100  0.410300  1.0  0.1151
  H  H607  1  0.113600  0.659700  0.322500  1.0  0.1109
  H  H608  1  0.131300  0.738700  0.353400  1.0  0.0921
  H  H609  1  0.167900  0.716200  0.405900  1.0  0.1098
  H  H610  1  0.099600  0.657700  0.282700  1.0  0.1153
  H  H611  1  0.067700  0.647800  0.239500  1.0  0.1165
  H  H612  1  0.058200  0.712200  0.277600  1.0  0.1152
  H  H613  1  0.090600  0.722400  0.319800  1.0  0.103
  H  H614  1  0.335400  0.482700  0.399700  1.0  0.1061
  H  H615  1  0.313300  0.450400  0.411100  1.0  0.1201
  H  H616  1  0.243500  0.410400  0.335300  1.0  0.1188
  H  H617  1  0.266600  0.443000  0.324400  1.0  0.1046
  H  H618  1  0.220900  0.398000  0.356100  1.0  0.0995
  H  H619  1  0.176600  0.346900  0.363700  1.0  0.0932
  H  H620  1  0.183100  0.411100  0.369000  1.0  0.1053
  H  H621  1  0.155200  0.454800  0.417600  1.0  0.1149
  H  H622  1  0.155900  0.494300  0.416600  1.0  0.1115
  H  H623  1  0.203100  0.495800  0.379500  1.0  0.1177
  H  H624  1  0.202700  0.457100  0.382400  1.0  0.1012
  H  H625  1  0.343300  0.613100  0.161000  1.0  0.1072
  H  H626  1  0.336200  0.646600  0.152600  1.0  0.0987
  H  H627  1  0.404200  0.670000  0.144000  1.0  0.0944
  H  H628  1  0.410300  0.635100  0.149600  1.0  0.1151
  H  H629  1  0.322500  0.659700  0.113600  1.0  0.112
  H  H630  1  0.353400  0.738700  0.131300  1.0  0.0926
  H  H631  1  0.405900  0.716200  0.167900  1.0  0.1088
  H  H632  1  0.282700  0.657700  0.099600  1.0  0.1157
  H  H633  1  0.239500  0.647800  0.067700  1.0  0.1169
  H  H634  1  0.277600  0.712200  0.058200  1.0  0.1147
  H  H635  1  0.319800  0.722400  0.090600  1.0  0.104
  H  H636  1  0.399700  0.482700  0.335400  1.0  0.105
  H  H637  1  0.411100  0.450400  0.313300  1.0  0.1204
  H  H638  1  0.335300  0.410400  0.243500  1.0  0.1191
  H  H639  1  0.324400  0.443000  0.266600  1.0  0.1046
  H  H640  1  0.356100  0.398000  0.220900  1.0  0.0995
  H  H641  1  0.363700  0.346900  0.176600  1.0  0.0927
  H  H642  1  0.369000  0.411100  0.183100  1.0  0.1048
  H  H643  1  0.417600  0.454800  0.155200  1.0  0.1144
  H  H644  1  0.416600  0.494300  0.155900  1.0  0.1119
  H  H645  1  0.379500  0.495800  0.203100  1.0  0.118
  H  H646  1  0.382400  0.457100  0.202700  1.0  0.1002
  H  H647  1  0.452100  0.182300  0.839000  1.0  0.108
  H  H648  1  0.494000  0.183600  0.847400  1.0  0.099
  H  H649  1  0.526000  0.260200  0.856000  1.0  0.0962
  H  H650  1  0.485500  0.260700  0.850400  1.0  0.1155
  H  H651  1  0.546100  0.208900  0.886400  1.0  0.1115
  H  H652  1  0.607400  0.222100  0.868700  1.0  0.0938
  H  H653  1  0.548300  0.238000  0.832100  1.0  0.1075
  H  H654  1  0.558100  0.183100  0.900400  1.0  0.1151
  H  H655  1  0.580100  0.171800  0.932300  1.0  0.117
  H  H656  1  0.654000  0.219400  0.941800  1.0  0.1144
  H  H657  1  0.631800  0.229200  0.909400  1.0  0.1004
  H  H658  1  0.147300  0.064300  0.664600  1.0  0.1052
  H  H659  1  0.137100  0.097800  0.686700  1.0  0.1168
  H  H660  1  0.166900  0.091800  0.756500  1.0  0.1205
  H  H661  1  0.176400  0.057800  0.733400  1.0  0.1068
  H  H662  1  0.177100  0.135200  0.779100  1.0  0.0992
  H  H663  1  0.170300  0.187100  0.823400  1.0  0.097
  H  H664  1  0.228000  0.185900  0.816900  1.0  0.1049
  H  H665  1  0.299600  0.262400  0.844800  1.0  0.1118
  H  H666  1  0.338400  0.260700  0.844100  1.0  0.1125
  H  H667  1  0.292700  0.176400  0.796900  1.0  0.1185
  H  H668  1  0.254400  0.179700  0.797300  1.0  0.0999
  H  H669  1  0.547900  0.386900  0.730200  1.0  0.1076
  H  H670  1  0.506000  0.353400  0.689600  1.0  0.0988
  H  H671  1  0.474000  0.330000  0.734200  1.0  0.0965
  H  H672  1  0.514500  0.364900  0.775200  1.0  0.1153
  H  H673  1  0.453900  0.340300  0.662800  1.0  0.1077
  H  H674  1  0.392600  0.261300  0.614700  1.0  0.093
  H  H675  1  0.451700  0.283800  0.689700  1.0  0.1082
  H  H676  1  0.441900  0.342300  0.625000  1.0  0.1147
  H  H677  1  0.419900  0.352200  0.591700  1.0  0.116
  H  H678  1  0.346000  0.287800  0.565400  1.0  0.1113
  H  H679  1  0.368200  0.277600  0.597400  1.0  0.1017
  H  H680  1  0.852700  0.517300  0.917000  1.0  0.1055
  H  H681  1  0.862900  0.549600  0.960700  1.0  0.1209
  H  H682  1  0.833100  0.589600  0.924900  1.0  0.1206
  H  H683  1  0.823600  0.557000  0.881400  1.0  0.1063
  H  H684  1  0.822900  0.602000  0.958100  1.0  0.0994
  H  H685  1  0.829700  0.653100  0.016800  1.0  0.0944
  H  H686  1  0.772000  0.588900  0.957900  1.0  0.1051
  H  H687  1  0.700400  0.545200  0.962800  1.0  0.1129
  H  H688  1  0.661600  0.505700  0.922300  1.0  0.111
  H  H689  1  0.707300  0.504200  0.883700  1.0  0.1164
  H  H690  1  0.745600  0.542900  0.925300  1.0  0.0996
  H  H691  1  0.656700  0.817700  0.269800  1.0  0.1083
  H  H692  1  0.663800  0.816400  0.310400  1.0  0.0985
  H  H693  1  0.595800  0.739800  0.265800  1.0  0.0948
  H  H694  1  0.589700  0.739300  0.224800  1.0  0.1144
  H  H695  1  0.677500  0.791100  0.337200  1.0  0.1078
  H  H696  1  0.646600  0.777900  0.385300  1.0  0.0926
  H  H697  1  0.594100  0.762000  0.310300  1.0  0.108
  H  H698  1  0.717300  0.816900  0.375000  1.0  0.1133
  H  H699  1  0.760500  0.828200  0.408300  1.0  0.1163
  H  H700  1  0.722400  0.780600  0.434600  1.0  0.1126
  H  H701  1  0.680200  0.770800  0.402600  1.0  0.1032
  H  H702  1  0.600300  0.935700  0.083000  1.0  0.1042
  H  H703  1  0.588900  0.902200  0.039300  1.0  0.1205
  H  H704  1  0.664700  0.908200  0.075100  1.0  0.1198
  H  H705  1  0.675600  0.942200  0.118600  1.0  0.1058
  H  H706  1  0.643900  0.864800  0.041900  1.0  0.0999
  H  H707  1  0.636300  0.812900  0.983200  1.0  0.0976
  H  H708  1  0.631000  0.814100  0.042100  1.0  0.1061
  H  H709  1  0.582400  0.737600  0.037200  1.0  0.1117
  H  H710  1  0.583400  0.739300  0.077700  1.0  0.1106
  H  H711  1  0.620500  0.823600  0.116300  1.0  0.1192
  H  H712  1  0.617600  0.820300  0.074700  1.0  0.0988
  H  H713  1  0.161000  0.343300  0.613100  1.0  0.1072
  H  H714  1  0.152600  0.336200  0.646600  1.0  0.0985
  H  H715  1  0.144000  0.404200  0.670000  1.0  0.0949
  H  H716  1  0.149600  0.410300  0.635100  1.0  0.1157
  H  H717  1  0.113600  0.322500  0.659700  1.0  0.1086
  H  H718  1  0.131300  0.353400  0.738700  1.0  0.0933
  H  H719  1  0.167900  0.405900  0.716200  1.0  0.1096
  H  H720  1  0.099600  0.282700  0.657700  1.0  0.1159
  H  H721  1  0.067700  0.239500  0.647800  1.0  0.1165
  H  H722  1  0.058200  0.277600  0.712200  1.0  0.1145
  H  H723  1  0.090600  0.319800  0.722400  1.0  0.1033
  H  H724  1  0.335400  0.399700  0.482700  1.0  0.1056
  H  H725  1  0.313300  0.411100  0.450400  1.0  0.12
  H  H726  1  0.243500  0.335300  0.410400  1.0  0.1204
  H  H727  1  0.266600  0.324400  0.443000  1.0  0.1034
  H  H728  1  0.220900  0.356100  0.398000  1.0  0.1005
  H  H729  1  0.176600  0.363700  0.346900  1.0  0.0955
  H  H730  1  0.183100  0.369000  0.411100  1.0  0.1059
  H  H731  1  0.155200  0.417600  0.454800  1.0  0.1135
  H  H732  1  0.155900  0.416600  0.494300  1.0  0.1104
  H  H733  1  0.203100  0.379500  0.495800  1.0  0.1178
  H  H734  1  0.202700  0.382400  0.457100  1.0  0.0993
  H  H735  1  0.839000  0.452100  0.182300  1.0  0.107
  H  H736  1  0.847400  0.494000  0.183600  1.0  0.1002
  H  H737  1  0.856000  0.526000  0.260200  1.0  0.0963
  H  H738  1  0.850400  0.485500  0.260700  1.0  0.1141
  H  H739  1  0.886400  0.546100  0.208900  1.0  0.1102
  H  H740  1  0.868700  0.607400  0.222100  1.0  0.0939
  H  H741  1  0.832100  0.548300  0.238000  1.0  0.1079
  H  H742  1  0.900400  0.558100  0.183100  1.0  0.1153
  H  H743  1  0.932300  0.580100  0.171800  1.0  0.1168
  H  H744  1  0.941800  0.654000  0.219400  1.0  0.1136
  H  H745  1  0.909400  0.631800  0.229200  1.0  0.1018
  H  H746  1  0.664600  0.147300  0.064300  1.0  0.1043
  H  H747  1  0.686700  0.137100  0.097800  1.0  0.1161
  H  H748  1  0.756500  0.166900  0.091800  1.0  0.1191
  H  H749  1  0.733400  0.176400  0.057800  1.0  0.1063
  H  H750  1  0.779100  0.177100  0.135200  1.0  0.0998
  H  H751  1  0.823400  0.170300  0.187100  1.0  0.0961
  H  H752  1  0.816900  0.228000  0.185900  1.0  0.1056
  H  H753  1  0.844800  0.299600  0.262400  1.0  0.1135
  H  H754  1  0.844100  0.338400  0.260700  1.0  0.1128
  H  H755  1  0.796900  0.292700  0.176400  1.0  0.1177
  H  H756  1  0.797300  0.254400  0.179700  1.0  0.0994
  H  H757  1  0.730200  0.547900  0.386900  1.0  0.1085
  H  H758  1  0.689600  0.506000  0.353400  1.0  0.0985
  H  H759  1  0.734200  0.474000  0.330000  1.0  0.0957
  H  H760  1  0.775200  0.514500  0.364900  1.0  0.1151
  H  H761  1  0.662800  0.453900  0.340300  1.0  0.109
  H  H762  1  0.614700  0.392600  0.261300  1.0  0.0913
  H  H763  1  0.689700  0.451700  0.283800  1.0  0.108
  H  H764  1  0.625000  0.441900  0.342300  1.0  0.1151
  H  H765  1  0.591700  0.419900  0.352200  1.0  0.1173
  H  H766  1  0.565400  0.346000  0.287800  1.0  0.1107
  H  H767  1  0.597400  0.368200  0.277600  1.0  0.1022
  H  H768  1  0.917000  0.852700  0.517300  1.0  0.1051
  H  H769  1  0.960700  0.862900  0.549600  1.0  0.1213
  H  H770  1  0.924900  0.833100  0.589600  1.0  0.121
  H  H771  1  0.881400  0.823600  0.557000  1.0  0.1068
  H  H772  1  0.958100  0.822900  0.602000  1.0  0.0991
  H  H773  1  0.016800  0.829700  0.653100  1.0  0.0973
  H  H774  1  0.957900  0.772000  0.588900  1.0  0.1053
  H  H775  1  0.962800  0.700400  0.545200  1.0  0.1116
  H  H776  1  0.922300  0.661600  0.505700  1.0  0.1111
  H  H777  1  0.883700  0.707300  0.504200  1.0  0.1167
  H  H778  1  0.925300  0.745600  0.542900  1.0  0.0995
  H  H779  1  0.269800  0.656700  0.817700  1.0  0.1078
  H  H780  1  0.310400  0.663800  0.816400  1.0  0.0984
  H  H781  1  0.265800  0.595800  0.739800  1.0  0.0945
  H  H782  1  0.224800  0.589700  0.739300  1.0  0.1143
  H  H783  1  0.337200  0.677500  0.791100  1.0  0.1094
  H  H784  1  0.385300  0.646600  0.777900  1.0  0.0935
  H  H785  1  0.310300  0.594100  0.762000  1.0  0.1069
  H  H786  1  0.375000  0.717300  0.816900  1.0  0.1148
  H  H787  1  0.408300  0.760500  0.828200  1.0  0.1162
  H  H788  1  0.434600  0.722400  0.780600  1.0  0.1132
  H  H789  1  0.402600  0.680200  0.770800  1.0  0.1023
  H  H790  1  0.083000  0.600300  0.935700  1.0  0.1046
  H  H791  1  0.039300  0.588900  0.902200  1.0  0.1209
  H  H792  1  0.075100  0.664700  0.908200  1.0  0.1206
  H  H793  1  0.118600  0.675600  0.942200  1.0  0.1066
  H  H794  1  0.041900  0.643900  0.864800  1.0  0.099
  H  H795  1  0.983200  0.636300  0.812900  1.0  0.0935
  H  H796  1  0.042100  0.631000  0.814100  1.0  0.106
  H  H797  1  0.037200  0.582400  0.737600  1.0  0.1121
  H  H798  1  0.077700  0.583400  0.739300  1.0  0.1119
  H  H799  1  0.116300  0.620500  0.823600  1.0  0.1192
  H  H800  1  0.074700  0.617600  0.820300  1.0  0.0985
  H  H801  1  0.613100  0.161000  0.343300  1.0  0.1083
  H  H802  1  0.646600  0.152600  0.336200  1.0  0.0991
  H  H803  1  0.670000  0.144000  0.404200  1.0  0.0952
  H  H804  1  0.635100  0.149600  0.410300  1.0  0.1143
  H  H805  1  0.659700  0.113600  0.322500  1.0  0.1116
  H  H806  1  0.738700  0.131300  0.353400  1.0  0.0925
  H  H807  1  0.716200  0.167900  0.405900  1.0  0.1101
  H  H808  1  0.657700  0.099600  0.282700  1.0  0.1144
  H  H809  1  0.647800  0.067700  0.239500  1.0  0.1171
  H  H810  1  0.712200  0.058200  0.277600  1.0  0.1147
  H  H811  1  0.722400  0.090600  0.319800  1.0  0.1031
  H  H812  1  0.482700  0.335400  0.399700  1.0  0.1061
  H  H813  1  0.450400  0.313300  0.411100  1.0  0.1209
  H  H814  1  0.410400  0.243500  0.335300  1.0  0.1197
  H  H815  1  0.443000  0.266600  0.324400  1.0  0.1051
  H  H816  1  0.398000  0.220900  0.356100  1.0  0.1003
  H  H817  1  0.346900  0.176600  0.363700  1.0  0.0951
  H  H818  1  0.411100  0.183100  0.369000  1.0  0.1055
  H  H819  1  0.454800  0.155200  0.417600  1.0  0.1141
  H  H820  1  0.494300  0.155900  0.416600  1.0  0.1118
  H  H821  1  0.495800  0.203100  0.379500  1.0  0.1166
  H  H822  1  0.457100  0.202700  0.382400  1.0  0.1011
  H  H823  1  0.182300  0.839000  0.452100  1.0  0.1077
  H  H824  1  0.183600  0.847400  0.494000  1.0  0.0985
  H  H825  1  0.260200  0.856000  0.526000  1.0  0.0956
  H  H826  1  0.260700  0.850400  0.485500  1.0  0.1145
  H  H827  1  0.208900  0.886400  0.546100  1.0  0.1105
  H  H828  1  0.222100  0.868700  0.607400  1.0  0.0949
  H  H829  1  0.238000  0.832100  0.548300  1.0  0.1072
  H  H830  1  0.183100  0.900400  0.558100  1.0  0.1145
  H  H831  1  0.171800  0.932300  0.580100  1.0  0.1169
  H  H832  1  0.219400  0.941800  0.654000  1.0  0.1144
  H  H833  1  0.229200  0.909400  0.631800  1.0  0.1022
  H  H834  1  0.064300  0.664600  0.147300  1.0  0.1047
  H  H835  1  0.097800  0.686700  0.137100  1.0  0.1161
  H  H836  1  0.091800  0.756500  0.166900  1.0  0.1197
  H  H837  1  0.057800  0.733400  0.176400  1.0  0.106
  H  H838  1  0.135200  0.779100  0.177100  1.0  0.1006
  H  H839  1  0.187100  0.823400  0.170300  1.0  0.0946
  H  H840  1  0.185900  0.816900  0.228000  1.0  0.1063
  H  H841  1  0.262400  0.844800  0.299600  1.0  0.1126
  H  H842  1  0.260700  0.844100  0.338400  1.0  0.1116
  H  H843  1  0.176400  0.796900  0.292700  1.0  0.118
  H  H844  1  0.179700  0.797300  0.254400  1.0  0.0989
  H  H845  1  0.386900  0.730200  0.547900  1.0  0.1063
  H  H846  1  0.353400  0.689600  0.506000  1.0  0.0989
  H  H847  1  0.330000  0.734200  0.474000  1.0  0.096
  H  H848  1  0.364900  0.775200  0.514500  1.0  0.1155
  H  H849  1  0.340300  0.662800  0.453900  1.0  0.1085
  H  H850  1  0.261300  0.614700  0.392600  1.0  0.0928
  H  H851  1  0.283800  0.689700  0.451700  1.0  0.107
  H  H852  1  0.342300  0.625000  0.441900  1.0  0.1147
  H  H853  1  0.352200  0.591700  0.419900  1.0  0.1162
  H  H854  1  0.287800  0.565400  0.346000  1.0  0.1103
  H  H855  1  0.277600  0.597400  0.368200  1.0  0.1036
  H  H856  1  0.517300  0.917000  0.852700  1.0  0.1053
  H  H857  1  0.549600  0.960700  0.862900  1.0  0.1204
  H  H858  1  0.589600  0.924900  0.833100  1.0  0.1201
  H  H859  1  0.557000  0.881400  0.823600  1.0  0.1067
  H  H860  1  0.602000  0.958100  0.822900  1.0  0.0988
  H  H861  1  0.653100  0.016800  0.829700  1.0  0.0954
  H  H862  1  0.588900  0.957900  0.772000  1.0  0.1035
  H  H863  1  0.545200  0.962800  0.700400  1.0  0.1117
  H  H864  1  0.505700  0.922300  0.661600  1.0  0.1111
  H  H865  1  0.504200  0.883700  0.707300  1.0  0.1165
  H  H866  1  0.542900  0.925300  0.745600  1.0  0.0996
  H  H867  1  0.817700  0.269800  0.656700  1.0  0.1087
  H  H868  1  0.816400  0.310400  0.663800  1.0  0.099
  H  H869  1  0.739800  0.265800  0.595800  1.0  0.0955
  H  H870  1  0.739300  0.224800  0.589700  1.0  0.1146
  H  H871  1  0.791100  0.337200  0.677500  1.0  0.1099
  H  H872  1  0.777900  0.385300  0.646600  1.0  0.0911
  H  H873  1  0.762000  0.310300  0.594100  1.0  0.1079
  H  H874  1  0.816900  0.375000  0.717300  1.0  0.1139
  H  H875  1  0.828200  0.408300  0.760500  1.0  0.1167
  H  H876  1  0.780600  0.434600  0.722400  1.0  0.1126
  H  H877  1  0.770800  0.402600  0.680200  1.0  0.1017
  H  H878  1  0.935700  0.083000  0.600300  1.0  0.1046
  H  H879  1  0.902200  0.039300  0.588900  1.0  0.1185
  H  H880  1  0.908200  0.075100  0.664700  1.0  0.1206
  H  H881  1  0.942200  0.118600  0.675600  1.0  0.106
  H  H882  1  0.864800  0.041900  0.643900  1.0  0.0997
  H  H883  1  0.812900  0.983200  0.636300  1.0  0.0981
  H  H884  1  0.814100  0.042100  0.631000  1.0  0.107
  H  H885  1  0.737600  0.037200  0.582400  1.0  0.1108
  H  H886  1  0.739300  0.077700  0.583400  1.0  0.1109
  H  H887  1  0.823600  0.116300  0.620500  1.0  0.1196
  H  H888  1  0.820300  0.074700  0.617600  1.0  0.0991
  H  H889  1  0.817700  0.547900  0.161000  1.0  0.1087
  H  H890  1  0.816400  0.506000  0.152600  1.0  0.0985
  H  H891  1  0.739800  0.474000  0.144000  1.0  0.0957
  H  H892  1  0.739300  0.514500  0.149600  1.0  0.1135
  H  H893  1  0.791100  0.453900  0.113600  1.0  0.1105
  H  H894  1  0.777900  0.392600  0.131300  1.0  0.092
  H  H895  1  0.762000  0.451700  0.167900  1.0  0.1077
  H  H896  1  0.816900  0.441900  0.099600  1.0  0.1145
  H  H897  1  0.828200  0.419900  0.067700  1.0  0.1177
  H  H898  1  0.780600  0.346000  0.058200  1.0  0.114
  H  H899  1  0.770800  0.368200  0.090600  1.0  0.1012
  H  H900  1  0.935700  0.852700  0.335400  1.0  0.104
  H  H901  1  0.902200  0.862900  0.313300  1.0  0.1172
  H  H902  1  0.908200  0.833100  0.243500  1.0  0.1189
  H  H903  1  0.942200  0.823600  0.266600  1.0  0.1065
  H  H904  1  0.864800  0.822900  0.220900  1.0  0.0995
  H  H905  1  0.812900  0.829700  0.176600  1.0  0.0949
  H  H906  1  0.814100  0.772000  0.183100  1.0  0.1057
  H  H907  1  0.737600  0.700400  0.155200  1.0  0.1126
  H  H908  1  0.739300  0.661600  0.155900  1.0  0.1122
  H  H909  1  0.823600  0.707300  0.203100  1.0  0.1177
  H  H910  1  0.820300  0.745600  0.202700  1.0  0.0994
  H  H911  1  0.386900  0.656700  0.839000  1.0  0.1079
  H  H912  1  0.353400  0.663800  0.847400  1.0  0.0977
  H  H913  1  0.330000  0.595800  0.856000  1.0  0.0947
  H  H914  1  0.364900  0.589700  0.850400  1.0  0.1146
  H  H915  1  0.340300  0.677500  0.886400  1.0  0.111
  H  H916  1  0.261300  0.646600  0.868700  1.0  0.0928
  H  H917  1  0.283800  0.594100  0.832100  1.0  0.1093
  H  H918  1  0.342300  0.717300  0.900400  1.0  0.1154
  H  H919  1  0.352200  0.760500  0.932300  1.0  0.1167
  H  H920  1  0.287800  0.722400  0.941800  1.0  0.1157
  H  H921  1  0.277600  0.680200  0.909400  1.0  0.1038
  H  H922  1  0.517300  0.600300  0.664600  1.0  0.1052
  H  H923  1  0.549600  0.588900  0.686700  1.0  0.1211
  H  H924  1  0.589600  0.664700  0.756500  1.0  0.1189
  H  H925  1  0.557000  0.675600  0.733400  1.0  0.1054
  H  H926  1  0.602000  0.643900  0.779100  1.0  0.0985
  H  H927  1  0.653100  0.636300  0.823400  1.0  0.0914
  H  H928  1  0.588900  0.631000  0.816900  1.0  0.1048
  H  H929  1  0.545200  0.582400  0.844800  1.0  0.115
  H  H930  1  0.505700  0.583400  0.844100  1.0  0.1112
  H  H931  1  0.504200  0.620500  0.796900  1.0  0.1179
  H  H932  1  0.542900  0.617600  0.797300  1.0  0.1002
  H  H933  1  0.182300  0.343300  0.730200  1.0  0.107
  H  H934  1  0.183600  0.336200  0.689600  1.0  0.0975
  H  H935  1  0.260200  0.404200  0.734200  1.0  0.0955
  H  H936  1  0.260700  0.410300  0.775200  1.0  0.1143
  H  H937  1  0.208900  0.322500  0.662800  1.0  0.1067
  H  H938  1  0.222100  0.353400  0.614700  1.0  0.0933
  H  H939  1  0.238000  0.405900  0.689700  1.0  0.1075
  H  H940  1  0.183100  0.282700  0.625000  1.0  0.1148
  H  H941  1  0.171800  0.239500  0.591700  1.0  0.1159
  H  H942  1  0.219400  0.277600  0.565400  1.0  0.1127
  H  H943  1  0.229200  0.319800  0.597400  1.0  0.102
  H  H944  1  0.064300  0.399700  0.917000  1.0  0.106
  H  H945  1  0.097800  0.411100  0.960700  1.0  0.1207
  H  H946  1  0.091800  0.335300  0.924900  1.0  0.1209
  H  H947  1  0.057800  0.324400  0.881400  1.0  0.1054
  H  H948  1  0.135200  0.356100  0.958100  1.0  0.1001
  H  H949  1  0.187100  0.363700  0.016800  1.0  0.0982
  H  H950  1  0.185900  0.369000  0.957900  1.0  0.1065
  H  H951  1  0.262400  0.417600  0.962800  1.0  0.1111
  H  H952  1  0.260700  0.416600  0.922300  1.0  0.1115
  H  H953  1  0.176400  0.379500  0.883700  1.0  0.1188
  H  H954  1  0.179700  0.382400  0.925300  1.0  0.0984
  H  H955  1  0.613100  0.452100  0.269800  1.0  0.1081
  H  H956  1  0.646600  0.494000  0.310400  1.0  0.098
  H  H957  1  0.670000  0.526000  0.265800  1.0  0.0956
  H  H958  1  0.635100  0.485500  0.224800  1.0  0.1145
  H  H959  1  0.659700  0.546100  0.337200  1.0  0.1085
  H  H960  1  0.738700  0.607400  0.385300  1.0  0.0931
  H  H961  1  0.716200  0.548300  0.310300  1.0  0.1089
  H  H962  1  0.657700  0.558100  0.375000  1.0  0.1143
  H  H963  1  0.647800  0.580100  0.408300  1.0  0.1163
  H  H964  1  0.712200  0.654000  0.434600  1.0  0.1107
  H  H965  1  0.722400  0.631800  0.402600  1.0  0.1029
  H  H966  1  0.482700  0.147300  0.083000  1.0  0.1054
  H  H967  1  0.450400  0.137100  0.039300  1.0  0.1212
  H  H968  1  0.410400  0.166900  0.075100  1.0  0.1209
  H  H969  1  0.443000  0.176400  0.118600  1.0  0.1056
  H  H970  1  0.398000  0.177100  0.041900  1.0  0.0993
  H  H971  1  0.346900  0.170300  0.983200  1.0  0.0936
  H  H972  1  0.411100  0.228000  0.042100  1.0  0.1052
  H  H973  1  0.454800  0.299600  0.037200  1.0  0.1129
  H  H974  1  0.494300  0.338400  0.077700  1.0  0.1119
  H  H975  1  0.495800  0.292700  0.116300  1.0  0.1165
  H  H976  1  0.457100  0.254400  0.074700  1.0  0.1001
  H  H977  1  0.452100  0.269800  0.613100  1.0  0.1086
  H  H978  1  0.494000  0.310400  0.646600  1.0  0.0988
  H  H979  1  0.526000  0.265800  0.670000  1.0  0.095
  H  H980  1  0.485500  0.224800  0.635100  1.0  0.1149
  H  H981  1  0.546100  0.337200  0.659700  1.0  0.1087
  H  H982  1  0.607400  0.385300  0.738700  1.0  0.0926
  H  H983  1  0.548300  0.310300  0.716200  1.0  0.1076
  H  H984  1  0.558100  0.375000  0.657700  1.0  0.1134
  H  H985  1  0.580100  0.408300  0.647800  1.0  0.1162
  H  H986  1  0.654000  0.434600  0.712200  1.0  0.11
  H  H987  1  0.631800  0.402600  0.722400  1.0  0.1026
  H  H988  1  0.147300  0.083000  0.482700  1.0  0.105
  H  H989  1  0.137100  0.039300  0.450400  1.0  0.121
  H  H990  1  0.166900  0.075100  0.410400  1.0  0.1207
  H  H991  1  0.176400  0.118600  0.443000  1.0  0.1066
  H  H992  1  0.177100  0.041900  0.398000  1.0  0.0994
  H  H993  1  0.170300  0.983200  0.346900  1.0  0.094
  H  H994  1  0.228000  0.042100  0.411100  1.0  0.1056
  H  H995  1  0.299600  0.037200  0.454800  1.0  0.1109
  H  H996  1  0.338400  0.077700  0.494300  1.0  0.1108
  H  H997  1  0.292700  0.116300  0.495800  1.0  0.1176
  H  H998  1  0.254400  0.074700  0.457100  1.0  0.0993
  H  H999  1  0.343300  0.730200  0.182300  1.0  0.107
  H  H1000  1  0.336200  0.689600  0.183600  1.0  0.0977
  H  H1001  1  0.404200  0.734200  0.260200  1.0  0.0957
  H  H1002  1  0.410300  0.775200  0.260700  1.0  0.1143
  H  H1003  1  0.322500  0.662800  0.208900  1.0  0.1088
  H  H1004  1  0.353400  0.614700  0.222100  1.0  0.092
  H  H1005  1  0.405900  0.689700  0.238000  1.0  0.108
  H  H1006  1  0.282700  0.625000  0.183100  1.0  0.1146
  H  H1007  1  0.239500  0.591700  0.171800  1.0  0.1163
  H  H1008  1  0.277600  0.565400  0.219400  1.0  0.1125
  H  H1009  1  0.319800  0.597400  0.229200  1.0  0.1039
  H  H1010  1  0.399700  0.917000  0.064300  1.0  0.1055
  H  H1011  1  0.411100  0.960700  0.097800  1.0  0.1209
  H  H1012  1  0.335300  0.924900  0.091800  1.0  0.1195
  H  H1013  1  0.324400  0.881400  0.057800  1.0  0.1065
  H  H1014  1  0.356100  0.958100  0.135200  1.0  0.0986
  H  H1015  1  0.363700  0.016800  0.187100  1.0  0.0972
  H  H1016  1  0.369000  0.957900  0.185900  1.0  0.1052
  H  H1017  1  0.417600  0.962800  0.262400  1.0  0.1116
  H  H1018  1  0.416600  0.922300  0.260700  1.0  0.1117
  H  H1019  1  0.379500  0.883700  0.176400  1.0  0.1183
  H  H1020  1  0.382400  0.925300  0.179700  1.0  0.1003
  H  H1021  1  0.656700  0.839000  0.386900  1.0  0.1084
  H  H1022  1  0.663800  0.847400  0.353400  1.0  0.0982
  H  H1023  1  0.595800  0.856000  0.330000  1.0  0.0943
  H  H1024  1  0.589700  0.850400  0.364900  1.0  0.1141
  H  H1025  1  0.677500  0.886400  0.340300  1.0  0.1111
  H  H1026  1  0.646600  0.868700  0.261300  1.0  0.0934
  H  H1027  1  0.594100  0.832100  0.283800  1.0  0.1092
  H  H1028  1  0.717300  0.900400  0.342300  1.0  0.1145
  H  H1029  1  0.760500  0.932300  0.352200  1.0  0.1168
  H  H1030  1  0.722400  0.941800  0.287800  1.0  0.114
  H  H1031  1  0.680200  0.909400  0.277600  1.0  0.1033
  H  H1032  1  0.600300  0.664600  0.517300  1.0  0.1052
  H  H1033  1  0.588900  0.686700  0.549600  1.0  0.1204
  H  H1034  1  0.664700  0.756500  0.589600  1.0  0.1193
  H  H1035  1  0.675600  0.733400  0.557000  1.0  0.1052
  H  H1036  1  0.643900  0.779100  0.602000  1.0  0.0996
  H  H1037  1  0.636300  0.823400  0.653100  1.0  0.0967
  H  H1038  1  0.631000  0.816900  0.588900  1.0  0.1052
  H  H1039  1  0.582400  0.844800  0.545200  1.0  0.1137
  H  H1040  1  0.583400  0.844100  0.505700  1.0  0.1113
  H  H1041  1  0.620500  0.796900  0.504200  1.0  0.1176
  H  H1042  1  0.617600  0.797300  0.542900  1.0  0.1003
  H  H1043  1  0.547900  0.161000  0.817700  1.0  0.108
  H  H1044  1  0.506000  0.152600  0.816400  1.0  0.0974
  H  H1045  1  0.474000  0.144000  0.739800  1.0  0.0957
  H  H1046  1  0.514500  0.149600  0.739300  1.0  0.1139
  H  H1047  1  0.453900  0.113600  0.791100  1.0  0.1112
  H  H1048  1  0.392600  0.131300  0.777900  1.0  0.0936
  H  H1049  1  0.451700  0.167900  0.762000  1.0  0.1078
  H  H1050  1  0.441900  0.099600  0.816900  1.0  0.1143
  H  H1051  1  0.419900  0.067700  0.828200  1.0  0.117
  H  H1052  1  0.346000  0.058200  0.780600  1.0  0.1148
  H  H1053  1  0.368200  0.090600  0.770800  1.0  0.1008
  H  H1054  1  0.852700  0.335400  0.935700  1.0  0.1058
  H  H1055  1  0.862900  0.313300  0.902200  1.0  0.1173
  H  H1056  1  0.833100  0.243500  0.908200  1.0  0.12
  H  H1057  1  0.823600  0.266600  0.942200  1.0  0.106
  H  H1058  1  0.822900  0.220900  0.864800  1.0  0.0998
  H  H1059  1  0.829700  0.176600  0.812900  1.0  0.0968
  H  H1060  1  0.772000  0.183100  0.814100  1.0  0.1063
  H  H1061  1  0.700400  0.155200  0.737600  1.0  0.1128
  H  H1062  1  0.661600  0.155900  0.739300  1.0  0.1125
  H  H1063  1  0.707300  0.203100  0.823600  1.0  0.1171
  H  H1064  1  0.745600  0.202700  0.820300  1.0  0.1004
  H  H1065  1  0.730200  0.182300  0.343300  1.0  0.1085
  H  H1066  1  0.689600  0.183600  0.336200  1.0  0.0983
  H  H1067  1  0.734200  0.260200  0.404200  1.0  0.0945
  H  H1068  1  0.775200  0.260700  0.410300  1.0  0.1142
  H  H1069  1  0.662800  0.208900  0.322500  1.0  0.1086
  H  H1070  1  0.614700  0.222100  0.353400  1.0  0.0909
  H  H1071  1  0.689700  0.238000  0.405900  1.0  0.1087
  H  H1072  1  0.625000  0.183100  0.282700  1.0  0.1135
  H  H1073  1  0.591700  0.171800  0.239500  1.0  0.116
  H  H1074  1  0.565400  0.219400  0.277600  1.0  0.1118
  H  H1075  1  0.597400  0.229200  0.319800  1.0  0.1017
  H  H1076  1  0.917000  0.064300  0.399700  1.0  0.105
  H  H1077  1  0.960700  0.097800  0.411100  1.0  0.122
  H  H1078  1  0.924900  0.091800  0.335300  1.0  0.1204
  H  H1079  1  0.881400  0.057800  0.324400  1.0  0.106
  H  H1080  1  0.958100  0.135200  0.356100  1.0  0.0983
  H  H1081  1  0.016800  0.187100  0.363700  1.0  0.096
  H  H1082  1  0.957900  0.185900  0.369000  1.0  0.1056
  H  H1083  1  0.962800  0.262400  0.417600  1.0  0.1117
  H  H1084  1  0.922300  0.260700  0.416600  1.0  0.1117
  H  H1085  1  0.883700  0.176400  0.379500  1.0  0.1198
  H  H1086  1  0.925300  0.179700  0.382400  1.0  0.1003
  H  H1087  1  0.269800  0.613100  0.452100  1.0  0.1072
  H  H1088  1  0.310400  0.646600  0.494000  1.0  0.099
  H  H1089  1  0.265800  0.670000  0.526000  1.0  0.096
  H  H1090  1  0.224800  0.635100  0.485500  1.0  0.1148
  H  H1091  1  0.337200  0.659700  0.546100  1.0  0.1094
  H  H1092  1  0.385300  0.738700  0.607400  1.0  0.0932
  H  H1093  1  0.310300  0.716200  0.548300  1.0  0.1076
  H  H1094  1  0.375000  0.657700  0.558100  1.0  0.1144
  H  H1095  1  0.408300  0.647800  0.580100  1.0  0.116
  H  H1096  1  0.434600  0.712200  0.654000  1.0  0.1114
  H  H1097  1  0.402600  0.722400  0.631800  1.0  0.1032
  H  H1098  1  0.083000  0.482700  0.147300  1.0  0.105
  H  H1099  1  0.039300  0.450400  0.137100  1.0  0.1219
  H  H1100  1  0.075100  0.410400  0.166900  1.0  0.1197
  H  H1101  1  0.118600  0.443000  0.176400  1.0  0.1057
  H  H1102  1  0.041900  0.398000  0.177100  1.0  0.0995
  H  H1103  1  0.983200  0.346900  0.170300  1.0  0.0934
  H  H1104  1  0.042100  0.411100  0.228000  1.0  0.1048
  H  H1105  1  0.037200  0.454800  0.299600  1.0  0.1135
  H  H1106  1  0.077700  0.494300  0.338400  1.0  0.1117
  H  H1107  1  0.116300  0.495800  0.292700  1.0  0.1173
  H  H1108  1  0.074700  0.457100  0.254400  1.0  0.1001
  H  H1109  1  0.161000  0.817700  0.547900  1.0  0.1084
  H  H1110  1  0.152600  0.816400  0.506000  1.0  0.0978
  H  H1111  1  0.144000  0.739800  0.474000  1.0  0.0956
  H  H1112  1  0.149600  0.739300  0.514500  1.0  0.1153
  H  H1113  1  0.113600  0.791100  0.453900  1.0  0.1104
  H  H1114  1  0.131300  0.777900  0.392600  1.0  0.0948
  H  H1115  1  0.167900  0.762000  0.451700  1.0  0.1071
  H  H1116  1  0.099600  0.816900  0.441900  1.0  0.1133
  H  H1117  1  0.067700  0.828200  0.419900  1.0  0.117
  H  H1118  1  0.058200  0.780600  0.346000  1.0  0.1145
  H  H1119  1  0.090600  0.770800  0.368200  1.0  0.101
  H  H1120  1  0.335400  0.935700  0.852700  1.0  0.1051
  H  H1121  1  0.313300  0.902200  0.862900  1.0  0.1165
  H  H1122  1  0.243500  0.908200  0.833100  1.0  0.1194
  H  H1123  1  0.266600  0.942200  0.823600  1.0  0.1056
  H  H1124  1  0.220900  0.864800  0.822900  1.0  0.0995
  H  H1125  1  0.176600  0.812900  0.829700  1.0  0.0984
  H  H1126  1  0.183100  0.814100  0.772000  1.0  0.1059
  H  H1127  1  0.155200  0.737600  0.700400  1.0  0.1127
  H  H1128  1  0.155900  0.739300  0.661600  1.0  0.1116
  H  H1129  1  0.203100  0.823600  0.707300  1.0  0.1181
  H  H1130  1  0.202700  0.820300  0.745600  1.0  0.0986
  H  H1131  1  0.839000  0.386900  0.656700  1.0  0.1084
  H  H1132  1  0.847400  0.353400  0.663800  1.0  0.0976
  H  H1133  1  0.856000  0.330000  0.595800  1.0  0.0946
  H  H1134  1  0.850400  0.364900  0.589700  1.0  0.1143
  H  H1135  1  0.886400  0.340300  0.677500  1.0  0.1104
  H  H1136  1  0.868700  0.261300  0.646600  1.0  0.092
  H  H1137  1  0.832100  0.283800  0.594100  1.0  0.1094
  H  H1138  1  0.900400  0.342300  0.717300  1.0  0.1158
  H  H1139  1  0.932300  0.352200  0.760500  1.0  0.1167
  H  H1140  1  0.941800  0.287800  0.722400  1.0  0.1153
  H  H1141  1  0.909400  0.277600  0.680200  1.0  0.1025
  H  H1142  1  0.664600  0.517300  0.600300  1.0  0.1055
  H  H1143  1  0.686700  0.549600  0.588900  1.0  0.1203
  H  H1144  1  0.756500  0.589600  0.664700  1.0  0.1197
  H  H1145  1  0.733400  0.557000  0.675600  1.0  0.1045
  H  H1146  1  0.779100  0.602000  0.643900  1.0  0.0996
  H  H1147  1  0.823400  0.653100  0.636300  1.0  0.0942
  H  H1148  1  0.816900  0.588900  0.631000  1.0  0.1048
  H  H1149  1  0.844800  0.545200  0.582400  1.0  0.1149
  H  H1150  1  0.844100  0.505700  0.583400  1.0  0.1116
  H  H1151  1  0.796900  0.504200  0.620500  1.0  0.1174
  H  H1152  1  0.797300  0.542900  0.617600  1.0  0.1015
  H  H1153  1  0.597300  0.225800  0.823100  1.0  0.1143
  H  H1154  1  0.577100  0.238300  0.815400  1.0  0.0921
  H  H1155  1  0.402700  0.774200  0.176900  1.0  0.1152
  H  H1156  1  0.422900  0.761700  0.184600  1.0  0.0917
  H  H1157  1  0.597300  0.774200  0.371500  1.0  0.115
  H  H1158  1  0.577100  0.761700  0.338800  1.0  0.091
  H  H1159  1  0.402700  0.225800  0.628500  1.0  0.1134
  H  H1160  1  0.422900  0.238300  0.661200  1.0  0.0924
  H  H1161  1  0.823100  0.597300  0.225800  1.0  0.1145
  H  H1162  1  0.815400  0.577100  0.238300  1.0  0.0913
  H  H1163  1  0.176900  0.402700  0.774200  1.0  0.1143
  H  H1164  1  0.184600  0.422900  0.761700  1.0  0.091
  H  H1165  1  0.371500  0.597300  0.774200  1.0  0.1166
  H  H1166  1  0.338800  0.577100  0.761700  1.0  0.0933
  H  H1167  1  0.628500  0.402700  0.225800  1.0  0.1162
  H  H1168  1  0.661200  0.422900  0.238300  1.0  0.0938
  H  H1169  1  0.225800  0.823100  0.597300  1.0  0.1145
  H  H1170  1  0.238300  0.815400  0.577100  1.0  0.0864
  H  H1171  1  0.774200  0.176900  0.402700  1.0  0.1145
  H  H1172  1  0.761700  0.184600  0.422900  1.0  0.0894
  H  H1173  1  0.774200  0.371500  0.597300  1.0  0.1148
  H  H1174  1  0.761700  0.338800  0.577100  1.0  0.0925
  H  H1175  1  0.225800  0.628500  0.402700  1.0  0.1157
  H  H1176  1  0.238300  0.661200  0.422900  1.0  0.0928
  H  H1177  1  0.225800  0.597300  0.823100  1.0  0.1161
  H  H1178  1  0.238300  0.577100  0.815400  1.0  0.0911
  H  H1179  1  0.774200  0.402700  0.176900  1.0  0.1168
  H  H1180  1  0.761700  0.422900  0.184600  1.0  0.0921
  H  H1181  1  0.774200  0.597300  0.371500  1.0  0.1141
  H  H1182  1  0.761700  0.577100  0.338800  1.0  0.0918
  H  H1183  1  0.225800  0.402700  0.628500  1.0  0.1145
  H  H1184  1  0.238300  0.422900  0.661200  1.0  0.0932
  H  H1185  1  0.402700  0.628500  0.225800  1.0  0.1145
  H  H1186  1  0.422900  0.661200  0.238300  1.0  0.0923
  H  H1187  1  0.597300  0.371500  0.774200  1.0  0.1148
  H  H1188  1  0.577100  0.338800  0.761700  1.0  0.0931
  H  H1189  1  0.402700  0.176900  0.774200  1.0  0.1142
  H  H1190  1  0.422900  0.184600  0.761700  1.0  0.0892
  H  H1191  1  0.597300  0.823100  0.225800  1.0  0.1137
  H  H1192  1  0.577100  0.815400  0.238300  1.0  0.0868
  H  H1193  1  0.371500  0.774200  0.597300  1.0  0.1153
  H  H1194  1  0.338800  0.761700  0.577100  1.0  0.0939
  H  H1195  1  0.628500  0.225800  0.402700  1.0  0.1151
  H  H1196  1  0.661200  0.238300  0.422900  1.0  0.0929
  H  H1197  1  0.823100  0.225800  0.597300  1.0  0.115
  H  H1198  1  0.815400  0.238300  0.577100  1.0  0.0893
  H  H1199  1  0.176900  0.774200  0.402700  1.0  0.1146
  H  H1200  1  0.184600  0.761700  0.422900  1.0  0.091
  H  H1201  1  0.593000  0.593000  0.706000  1.0  0.1109
  H  H1202  1  0.559800  0.559800  0.819000  1.0  0.0955
  H  H1203  1  0.887000  0.887000  0.294000  1.0  0.1101
  H  H1204  1  0.740800  0.740800  0.181000  1.0  0.0958
  H  H1205  1  0.113000  0.407000  0.000000  1.0  0.1111
  H  H1206  1  0.259200  0.440200  0.000000  1.0  0.0929
  H  H1207  1  0.407000  0.113000  0.000000  1.0  0.1109
  H  H1208  1  0.440200  0.259200  0.000000  1.0  0.0919
  H  H1209  1  0.706000  0.593000  0.593000  1.0  0.1107
  H  H1210  1  0.819000  0.559800  0.559800  1.0  0.0959
  H  H1211  1  0.294000  0.887000  0.887000  1.0  0.1095
  H  H1212  1  0.181000  0.740800  0.740800  1.0  0.095
  H  H1213  1  0.000000  0.113000  0.407000  1.0  0.1117
  H  H1214  1  0.000000  0.259200  0.440200  1.0  0.0925
  H  H1215  1  0.000000  0.407000  0.113000  1.0  0.1118
  H  H1216  1  0.000000  0.440200  0.259200  1.0  0.0925
  H  H1217  1  0.593000  0.706000  0.593000  1.0  0.1119
  H  H1218  1  0.559800  0.819000  0.559800  1.0  0.0952
  H  H1219  1  0.887000  0.294000  0.887000  1.0  0.1102
  H  H1220  1  0.740800  0.181000  0.740800  1.0  0.0954
  H  H1221  1  0.407000  0.000000  0.113000  1.0  0.1124
  H  H1222  1  0.440200  0.000000  0.259200  1.0  0.0931
  H  H1223  1  0.113000  0.000000  0.407000  1.0  0.1114
  H  H1224  1  0.259200  0.000000  0.440200  1.0  0.0921
  H  H1225  1  0.113000  0.113000  0.706000  1.0  0.1101
  H  H1226  1  0.259200  0.259200  0.819000  1.0  0.0954
  H  H1227  1  0.407000  0.407000  0.294000  1.0  0.1109
  H  H1228  1  0.440200  0.440200  0.181000  1.0  0.0952
  H  H1229  1  0.887000  0.593000  0.000000  1.0  0.1116
  H  H1230  1  0.740800  0.559800  0.000000  1.0  0.0929
  H  H1231  1  0.593000  0.887000  0.000000  1.0  0.1105
  H  H1232  1  0.559800  0.740800  0.000000  1.0  0.0921
  H  H1233  1  0.887000  0.000000  0.593000  1.0  0.1111
  H  H1234  1  0.740800  0.000000  0.559800  1.0  0.0923
  H  H1235  1  0.593000  0.000000  0.887000  1.0  0.112
  H  H1236  1  0.559800  0.000000  0.740800  1.0  0.0925
  H  H1237  1  0.407000  0.294000  0.407000  1.0  0.1107
  H  H1238  1  0.440200  0.181000  0.440200  1.0  0.0951
  H  H1239  1  0.113000  0.706000  0.113000  1.0  0.1107
  H  H1240  1  0.259200  0.819000  0.259200  1.0  0.0956
  H  H1241  1  0.000000  0.887000  0.593000  1.0  0.1108
  H  H1242  1  0.000000  0.740800  0.559800  1.0  0.0929
  H  H1243  1  0.000000  0.593000  0.887000  1.0  0.1118
  H  H1244  1  0.000000  0.559800  0.740800  1.0  0.0927
  H  H1245  1  0.706000  0.113000  0.113000  1.0  0.1096
  H  H1246  1  0.819000  0.259200  0.259200  1.0  0.0939
  H  H1247  1  0.294000  0.407000  0.407000  1.0  0.1116
  H  H1248  1  0.181000  0.440200  0.440200  1.0  0.095
  C  C1249  1  0.617140  0.402210  0.838570  1.0  0.6369
  C  C1250  1  0.622130  0.379650  0.843500  1.0  -0.094
  C  C1251  1  0.644330  0.375560  0.842930  1.0  -0.0651
  C  C1252  1  0.648530  0.355690  0.847980  1.0  -0.1512
  C  C1253  1  0.630790  0.338530  0.853960  1.0  0.0539
  C  C1254  1  0.608950  0.342200  0.853370  1.0  -0.0995
  C  C1255  1  0.604720  0.362520  0.849260  1.0  -0.1299
  C  C1256  1  0.635490  0.315890  0.858740  1.0  0.0303
  C  C1257  1  0.661980  0.321830  0.876750  1.0  -0.1615
  C  C1258  1  0.666110  0.300810  0.880820  1.0  0.112
  C  C1259  1  0.643690  0.275620  0.866230  1.0  -0.0855
  C  C1260  1  0.615640  0.267230  0.847230  1.0  0.186
  C  C1261  1  0.612350  0.287810  0.844220  1.0  -0.1664
  C  C1262  1  0.693890  0.308340  0.900770  1.0  0.0392
  C  C1263  1  0.718190  0.330680  0.908530  1.0  -0.1649
  C  C1264  1  0.743850  0.336810  0.927700  1.0  -0.0907
  C  C1265  1  0.745610  0.320400  0.940570  1.0  -0.0866
  C  C1266  1  0.721890  0.299140  0.933310  1.0  -0.0946
  C  C1267  1  0.696750  0.293160  0.914010  1.0  -0.1517
  C  C1268  1  0.773430  0.328960  0.962310  1.0  0.6966
  C  C1269  1  0.646250  0.513290  0.682060  1.0  0.6671
  C  C1270  1  0.639640  0.534240  0.696880  1.0  -0.1374
  C  C1271  1  0.613590  0.532200  0.683250  1.0  -0.0453
  C  C1272  1  0.606720  0.551440  0.696340  1.0  -0.1306
  C  C1273  1  0.626000  0.573410  0.723570  1.0  -0.0047
  C  C1274  1  0.651560  0.575120  0.737540  1.0  -0.1756
  C  C1275  1  0.658000  0.555430  0.723710  1.0  -0.0327
  C  C1276  1  0.619820  0.594570  0.739970  1.0  0.0361
  C  C1277  1  0.631130  0.606540  0.769130  1.0  -0.1213
  C  C1278  1  0.615920  0.591080  0.818040  1.0  -0.1519
  C  C1279  1  0.596380  0.570990  0.819310  1.0  0.0625
  C  C1280  1  0.598980  0.547900  0.819960  1.0  0.1267
  C  C1281  1  0.589720  0.536700  0.834420  1.0  -0.1693
  C  C1282  1  0.590710  0.513340  0.834370  1.0  -0.0714
  C  C1283  1  0.602260  0.500680  0.820220  1.0  -0.1154
  C  C1284  1  0.612250  0.511870  0.806520  1.0  -0.1278
  C  C1285  1  0.610310  0.535200  0.806970  1.0  -0.0971
  C  C1286  1  0.602960  0.475600  0.821720  1.0  0.6908
  C  C1287  1  0.563640  0.778570  0.161430  1.0  0.638
  C  C1288  1  0.536150  0.778630  0.156500  1.0  -0.0942
  C  C1289  1  0.532630  0.801400  0.157070  1.0  -0.0696
  C  C1290  1  0.507710  0.800550  0.152020  1.0  -0.1513
  C  C1291  1  0.484570  0.776830  0.146040  1.0  0.0586
  C  C1292  1  0.488830  0.755580  0.146630  1.0  -0.1005
  C  C1293  1  0.513260  0.755460  0.150740  1.0  -0.1289
  C  C1294  1  0.457150  0.776750  0.141260  1.0  0.0333
  C  C1295  1  0.445080  0.785230  0.123250  1.0  -0.1652
  C  C1296  1  0.419990  0.785290  0.119180  1.0  0.1127
  C  C1297  1  0.409390  0.777460  0.133770  1.0  -0.0867
  C  C1298  1  0.420000  0.768410  0.152770  1.0  0.1878
  C  C1299  1  0.443590  0.768130  0.155780  1.0  -0.177
  C  C1300  1  0.407570  0.793120  0.099230  1.0  0.0384
  C  C1301  1  0.422150  0.809660  0.091470  1.0  -0.1632
  C  C1302  1  0.409110  0.816150  0.072300  1.0  -0.0899
  C  C1303  1  0.379830  0.805040  0.059430  1.0  -0.0897
  C  C1304  1  0.365830  0.788580  0.066690  1.0  -0.0914
  C  C1305  1  0.379150  0.782740  0.085990  1.0  -0.1461
  C  C1306  1  0.366650  0.811120  0.037690  1.0  0.696
  C  C1307  1  0.831230  0.964190  0.317940  1.0  0.6722
  C  C1308  1  0.837360  0.942760  0.303120  1.0  -0.1388
  C  C1309  1  0.848950  0.930340  0.316750  1.0  -0.0402
  C  C1310  1  0.855100  0.910380  0.303660  1.0  -0.126
  C  C1311  1  0.849840  0.902430  0.276430  1.0  -0.0017
  C  C1312  1  0.837580  0.914020  0.262460  1.0  -0.1732
  C  C1313  1  0.831720  0.934290  0.276290  1.0  -0.0318
  C  C1314  1  0.854600  0.879850  0.260030  1.0  0.0376
  C  C1315  1  0.837410  0.862000  0.230870  1.0  -0.1208
  C  C1316  1  0.773040  0.797880  0.181960  1.0  -0.1511
  C  C1317  1  0.751680  0.777070  0.180690  1.0  0.0628
  C  C1318  1  0.727940  0.779020  0.180040  1.0  0.1266
  C  C1319  1  0.702280  0.755300  0.165580  1.0  -0.1719
  C  C1320  1  0.678970  0.756340  0.165630  1.0  -0.0651
  C  C1321  1  0.680460  0.782040  0.179780  1.0  -0.1149
  C  C1322  1  0.705350  0.805730  0.193480  1.0  -0.1246
  C  C1323  1  0.728230  0.803340  0.193030  1.0  -0.0969
  C  C1324  1  0.653880  0.781240  0.178280  1.0  0.6897
  C  C1325  1  0.436360  0.597790  0.214930  1.0  0.6426
  C  C1326  1  0.463850  0.620350  0.242480  1.0  -0.0966
  C  C1327  1  0.467370  0.624440  0.268770  1.0  -0.068
  C  C1328  1  0.492290  0.644310  0.292840  1.0  -0.1513
  C  C1329  1  0.515430  0.661470  0.292260  1.0  0.0565
  C  C1330  1  0.511170  0.657800  0.266750  1.0  -0.0991
  C  C1331  1  0.486740  0.637480  0.242200  1.0  -0.1298
  C  C1332  1  0.542850  0.684110  0.319600  1.0  0.0328
  C  C1333  1  0.554920  0.678170  0.340150  1.0  -0.1648
  C  C1334  1  0.580010  0.699190  0.365300  1.0  0.1135
  C  C1335  1  0.590610  0.724380  0.368070  1.0  -0.0836
  C  C1336  1  0.580000  0.732770  0.348410  1.0  0.187
  C  C1337  1  0.556410  0.712190  0.324540  1.0  -0.167
  C  C1338  1  0.592430  0.691660  0.385550  1.0  0.0412
  C  C1339  1  0.577850  0.669320  0.387510  1.0  -0.161
  C  C1340  1  0.590890  0.663190  0.407040  1.0  -0.0789
  C  C1341  1  0.620170  0.679600  0.425210  1.0  -0.0832
  C  C1342  1  0.634170  0.700860  0.422750  1.0  -0.102
  C  C1343  1  0.620850  0.706840  0.403590  1.0  -0.1526
  C  C1344  1  0.633350  0.671040  0.444470  1.0  0.7004
  C  C1345  1  0.168770  0.486710  0.132960  1.0  0.6673
  C  C1346  1  0.162640  0.465760  0.105400  1.0  -0.1369
  C  C1347  1  0.151050  0.467800  0.081390  1.0  -0.0456
  C  C1348  1  0.144900  0.448560  0.055280  1.0  -0.1296
  C  C1349  1  0.150160  0.426590  0.052590  1.0  -0.0059
  C  C1350  1  0.162420  0.424880  0.076440  1.0  -0.1751
  C  C1351  1  0.168280  0.444570  0.102570  1.0  -0.0351
  C  C1352  1  0.145400  0.405430  0.025250  1.0  0.0393
  C  C1353  1  0.162590  0.393460  0.024590  1.0  -0.1193
  C  C1354  1  0.226960  0.408920  0.024840  1.0  -0.1493
  C  C1355  1  0.248320  0.429010  0.025390  1.0  0.074
  C  C1356  1  0.272060  0.452100  0.051080  1.0  0.1305
  C  C1357  1  0.297720  0.463300  0.053020  1.0  -0.1664
  C  C1358  1  0.321030  0.486660  0.077370  1.0  -0.0699
  C  C1359  1  0.319540  0.499320  0.101580  1.0  -0.117
  C  C1360  1  0.294650  0.488130  0.100380  1.0  -0.1273
  C  C1361  1  0.271770  0.464800  0.075110  1.0  -0.0968
  C  C1362  1  0.346120  0.524400  0.127360  1.0  0.6937
  C  C1363  1  0.382860  0.221430  0.785070  1.0  0.6393
  C  C1364  1  0.377870  0.221370  0.757520  1.0  -0.0981
  C  C1365  1  0.355670  0.198600  0.731230  1.0  -0.0658
  C  C1366  1  0.351470  0.199450  0.707160  1.0  -0.1497
  C  C1367  1  0.369210  0.223170  0.707740  1.0  0.0564
  C  C1368  1  0.391050  0.244420  0.733250  1.0  -0.0951
  C  C1369  1  0.395280  0.244540  0.757800  1.0  -0.1245
  C  C1370  1  0.364510  0.223250  0.680400  1.0  0.0304
  C  C1371  1  0.338020  0.214770  0.659850  1.0  -0.1602
  C  C1372  1  0.333890  0.214710  0.634700  1.0  0.1129
  C  C1373  1  0.356310  0.222540  0.631930  1.0  -0.0878
  C  C1374  1  0.384360  0.231590  0.651590  1.0  0.1865
  C  C1375  1  0.387650  0.231870  0.675460  1.0  -0.1653
  C  C1376  1  0.306110  0.206880  0.614450  1.0  0.0434
  C  C1377  1  0.281810  0.190340  0.612490  1.0  -0.1582
  C  C1378  1  0.256150  0.183850  0.592960  1.0  -0.0788
  C  C1379  1  0.254390  0.194960  0.574790  1.0  -0.0833
  C  C1380  1  0.278110  0.211420  0.577250  1.0  -0.1004
  C  C1381  1  0.303250  0.217260  0.596410  1.0  -0.1542
  C  C1382  1  0.226570  0.188880  0.555530  1.0  0.7
  C  C1383  1  0.353750  0.035810  0.867040  1.0  0.6691
  C  C1384  1  0.360360  0.057240  0.894600  1.0  -0.1375
  C  C1385  1  0.386410  0.069660  0.918610  1.0  -0.0359
  C  C1386  1  0.393280  0.089620  0.944720  1.0  -0.1211
  C  C1387  1  0.374000  0.097570  0.947410  1.0  -0.0005
  C  C1388  1  0.348440  0.085980  0.923560  1.0  -0.1787
  C  C1389  1  0.342000  0.065710  0.897430  1.0  -0.0289
  C  C1390  1  0.380180  0.120150  0.974750  1.0  0.0379
  C  C1391  1  0.368870  0.138000  0.975410  1.0  -0.1223
  C  C1392  1  0.384080  0.202120  0.975160  1.0  -0.1525
  C  C1393  1  0.403620  0.222930  0.974610  1.0  0.0649
  C  C1394  1  0.401020  0.220980  0.948920  1.0  0.1316
  C  C1395  1  0.410280  0.244700  0.946980  1.0  -0.1716
  C  C1396  1  0.409290  0.243660  0.922630  1.0  -0.0647
  C  C1397  1  0.397740  0.217960  0.898420  1.0  -0.1151
  C  C1398  1  0.387750  0.194270  0.899620  1.0  -0.1259
  C  C1399  1  0.389690  0.196660  0.924890  1.0  -0.0965
  C  C1400  1  0.397040  0.218760  0.872640  1.0  0.6932
  C  C1401  1  0.838570  0.617140  0.402210  1.0  0.6434
  C  C1402  1  0.843500  0.622130  0.379650  1.0  -0.0993
  C  C1403  1  0.842930  0.644330  0.375560  1.0  -0.065
  C  C1404  1  0.847980  0.648530  0.355690  1.0  -0.1528
  C  C1405  1  0.853960  0.630790  0.338530  1.0  0.0568
  C  C1406  1  0.853370  0.608950  0.342200  1.0  -0.1005
  C  C1407  1  0.849260  0.604720  0.362520  1.0  -0.1334
  C  C1408  1  0.858740  0.635490  0.315890  1.0  0.0317
  C  C1409  1  0.876750  0.661980  0.321830  1.0  -0.1594
  C  C1410  1  0.880820  0.666110  0.300810  1.0  0.1105
  C  C1411  1  0.866230  0.643690  0.275620  1.0  -0.0862
  C  C1412  1  0.847230  0.615640  0.267230  1.0  0.1864
  C  C1413  1  0.844220  0.612350  0.287810  1.0  -0.1664
  C  C1414  1  0.900770  0.693890  0.308340  1.0  0.04
  C  C1415  1  0.908530  0.718190  0.330680  1.0  -0.1615
  C  C1416  1  0.927700  0.743850  0.336810  1.0  -0.0909
  C  C1417  1  0.940570  0.745610  0.320400  1.0  -0.0861
  C  C1418  1  0.933310  0.721890  0.299140  1.0  -0.0932
  C  C1419  1  0.914010  0.696750  0.293160  1.0  -0.1472
  C  C1420  1  0.962310  0.773430  0.328960  1.0  0.6971
  C  C1421  1  0.682060  0.646250  0.513290  1.0  0.6678
  C  C1422  1  0.696880  0.639640  0.534240  1.0  -0.1379
  C  C1423  1  0.683250  0.613590  0.532200  1.0  -0.0463
  C  C1424  1  0.696340  0.606720  0.551440  1.0  -0.1327
  C  C1425  1  0.723570  0.626000  0.573410  1.0  -0.0061
  C  C1426  1  0.737540  0.651560  0.575120  1.0  -0.1749
  C  C1427  1  0.723710  0.658000  0.555430  1.0  -0.0343
  C  C1428  1  0.739970  0.619820  0.594570  1.0  0.0357
  C  C1429  1  0.769130  0.631130  0.606540  1.0  -0.1209
  C  C1430  1  0.818040  0.615920  0.591080  1.0  -0.1547
  C  C1431  1  0.819310  0.596380  0.570990  1.0  0.0641
  C  C1432  1  0.819960  0.598980  0.547900  1.0  0.128
  C  C1433  1  0.834420  0.589720  0.536700  1.0  -0.1668
  C  C1434  1  0.834370  0.590710  0.513340  1.0  -0.0685
  C  C1435  1  0.820220  0.602260  0.500680  1.0  -0.1143
  C  C1436  1  0.806520  0.612250  0.511870  1.0  -0.1253
  C  C1437  1  0.806970  0.610310  0.535200  1.0  -0.0955
  C  C1438  1  0.821720  0.602960  0.475600  1.0  0.6915
  C  C1439  1  0.161430  0.563640  0.778570  1.0  0.6387
  C  C1440  1  0.156500  0.536150  0.778630  1.0  -0.095
  C  C1441  1  0.157070  0.532630  0.801400  1.0  -0.0704
  C  C1442  1  0.152020  0.507710  0.800550  1.0  -0.1491
  C  C1443  1  0.146040  0.484570  0.776830  1.0  0.0559
  C  C1444  1  0.146630  0.488830  0.755580  1.0  -0.1002
  C  C1445  1  0.150740  0.513260  0.755460  1.0  -0.1303
  C  C1446  1  0.141260  0.457150  0.776750  1.0  0.0302
  C  C1447  1  0.123250  0.445080  0.785230  1.0  -0.167
  C  C1448  1  0.119180  0.419990  0.785290  1.0  0.1126
  C  C1449  1  0.133770  0.409390  0.777460  1.0  -0.0874
  C  C1450  1  0.152770  0.420000  0.768410  1.0  0.1874
  C  C1451  1  0.155780  0.443590  0.768130  1.0  -0.1722
  C  C1452  1  0.099230  0.407570  0.793120  1.0  0.038
  C  C1453  1  0.091470  0.422150  0.809660  1.0  -0.1621
  C  C1454  1  0.072300  0.409110  0.816150  1.0  -0.0895
  C  C1455  1  0.059430  0.379830  0.805040  1.0  -0.0879
  C  C1456  1  0.066690  0.365830  0.788580  1.0  -0.0954
  C  C1457  1  0.085990  0.379150  0.782740  1.0  -0.1508
  C  C1458  1  0.037690  0.366650  0.811120  1.0  0.6968
  C  C1459  1  0.317940  0.831230  0.964190  1.0  0.6717
  C  C1460  1  0.303120  0.837360  0.942760  1.0  -0.1391
  C  C1461  1  0.316750  0.848950  0.930340  1.0  -0.0351
  C  C1462  1  0.303660  0.855100  0.910380  1.0  -0.1249
  C  C1463  1  0.276430  0.849840  0.902430  1.0  -0.0031
  C  C1464  1  0.262460  0.837580  0.914020  1.0  -0.1768
  C  C1465  1  0.276290  0.831720  0.934290  1.0  -0.0326
  C  C1466  1  0.260030  0.854600  0.879850  1.0  0.0378
  C  C1467  1  0.230870  0.837410  0.862000  1.0  -0.1199
  C  C1468  1  0.181960  0.773040  0.797880  1.0  -0.1482
  C  C1469  1  0.180690  0.751680  0.777070  1.0  0.0645
  C  C1470  1  0.180040  0.727940  0.779020  1.0  0.1274
  C  C1471  1  0.165580  0.702280  0.755300  1.0  -0.171
  C  C1472  1  0.165630  0.678970  0.756340  1.0  -0.0661
  C  C1473  1  0.179780  0.680460  0.782040  1.0  -0.1154
  C  C1474  1  0.193480  0.705350  0.805730  1.0  -0.1248
  C  C1475  1  0.193030  0.728230  0.803340  1.0  -0.097
  C  C1476  1  0.178280  0.653880  0.781240  1.0  0.6895
  C  C1477  1  0.214930  0.436360  0.597790  1.0  0.6421
  C  C1478  1  0.242480  0.463850  0.620350  1.0  -0.0958
  C  C1479  1  0.268770  0.467370  0.624440  1.0  -0.0683
  C  C1480  1  0.292840  0.492290  0.644310  1.0  -0.1521
  C  C1481  1  0.292260  0.515430  0.661470  1.0  0.0568
  C  C1482  1  0.266750  0.511170  0.657800  1.0  -0.0979
  C  C1483  1  0.242200  0.486740  0.637480  1.0  -0.1264
  C  C1484  1  0.319600  0.542850  0.684110  1.0  0.0306
  C  C1485  1  0.340150  0.554920  0.678170  1.0  -0.1637
  C  C1486  1  0.365300  0.580010  0.699190  1.0  0.1125
  C  C1487  1  0.368070  0.590610  0.724380  1.0  -0.0846
  C  C1488  1  0.348410  0.580000  0.732770  1.0  0.1875
  C  C1489  1  0.324540  0.556410  0.712190  1.0  -0.1677
  C  C1490  1  0.385550  0.592430  0.691660  1.0  0.0433
  C  C1491  1  0.387510  0.577850  0.669320  1.0  -0.1626
  C  C1492  1  0.407040  0.590890  0.663190  1.0  -0.0793
  C  C1493  1  0.425210  0.620170  0.679600  1.0  -0.0855
  C  C1494  1  0.422750  0.634170  0.700860  1.0  -0.1011
  C  C1495  1  0.403590  0.620850  0.706840  1.0  -0.1568
  C  C1496  1  0.444470  0.633350  0.671040  1.0  0.7011
  C  C1497  1  0.132960  0.168770  0.486710  1.0  0.6667
  C  C1498  1  0.105400  0.162640  0.465760  1.0  -0.1376
  C  C1499  1  0.081390  0.151050  0.467800  1.0  -0.0454
  C  C1500  1  0.055280  0.144900  0.448560  1.0  -0.1291
  C  C1501  1  0.052590  0.150160  0.426590  1.0  -0.0064
  C  C1502  1  0.076440  0.162420  0.424880  1.0  -0.1734
  C  C1503  1  0.102570  0.168280  0.444570  1.0  -0.0359
  C  C1504  1  0.025250  0.145400  0.405430  1.0  0.0364
  C  C1505  1  0.024590  0.162590  0.393460  1.0  -0.1223
  C  C1506  1  0.024840  0.226960  0.408920  1.0  -0.1529
  C  C1507  1  0.025390  0.248320  0.429010  1.0  0.075
  C  C1508  1  0.051080  0.272060  0.452100  1.0  0.1315
  C  C1509  1  0.053020  0.297720  0.463300  1.0  -0.1692
  C  C1510  1  0.077370  0.321030  0.486660  1.0  -0.0666
  C  C1511  1  0.101580  0.319540  0.499320  1.0  -0.1181
  C  C1512  1  0.100380  0.294650  0.488130  1.0  -0.1227
  C  C1513  1  0.075110  0.271770  0.464800  1.0  -0.094
  C  C1514  1  0.127360  0.346120  0.524400  1.0  0.6943
  C  C1515  1  0.785070  0.382860  0.221430  1.0  0.6346
  C  C1516  1  0.757520  0.377870  0.221370  1.0  -0.0932
  C  C1517  1  0.731230  0.355670  0.198600  1.0  -0.0689
  C  C1518  1  0.707160  0.351470  0.199450  1.0  -0.1554
  C  C1519  1  0.707740  0.369210  0.223170  1.0  0.056
  C  C1520  1  0.733250  0.391050  0.244420  1.0  -0.1004
  C  C1521  1  0.757800  0.395280  0.244540  1.0  -0.1336
  C  C1522  1  0.680400  0.364510  0.223250  1.0  0.0316
  C  C1523  1  0.659850  0.338020  0.214770  1.0  -0.1598
  C  C1524  1  0.634700  0.333890  0.214710  1.0  0.1139
  C  C1525  1  0.631930  0.356310  0.222540  1.0  -0.0855
  C  C1526  1  0.651590  0.384360  0.231590  1.0  0.1862
  C  C1527  1  0.675460  0.387650  0.231870  1.0  -0.1734
  C  C1528  1  0.614450  0.306110  0.206880  1.0  0.043
  C  C1529  1  0.612490  0.281810  0.190340  1.0  -0.1594
  C  C1530  1  0.592960  0.256150  0.183850  1.0  -0.0767
  C  C1531  1  0.574790  0.254390  0.194960  1.0  -0.0831
  C  C1532  1  0.577250  0.278110  0.211420  1.0  -0.0998
  C  C1533  1  0.596410  0.303250  0.217260  1.0  -0.1534
  C  C1534  1  0.555530  0.226570  0.188880  1.0  0.7007
  C  C1535  1  0.867040  0.353750  0.035810  1.0  0.6685
  C  C1536  1  0.894600  0.360360  0.057240  1.0  -0.1381
  C  C1537  1  0.918610  0.386410  0.069660  1.0  -0.043
  C  C1538  1  0.944720  0.393280  0.089620  1.0  -0.1261
  C  C1539  1  0.947410  0.374000  0.097570  1.0  -0.0008
  C  C1540  1  0.923560  0.348440  0.085980  1.0  -0.1782
  C  C1541  1  0.897430  0.342000  0.065710  1.0  -0.0317
  C  C1542  1  0.974750  0.380180  0.120150  1.0  0.0388
  C  C1543  1  0.975410  0.368870  0.138000  1.0  -0.1217
  C  C1544  1  0.975160  0.384080  0.202120  1.0  -0.1525
  C  C1545  1  0.974610  0.403620  0.222930  1.0  0.0628
  C  C1546  1  0.948920  0.401020  0.220980  1.0  0.1305
  C  C1547  1  0.946980  0.410280  0.244700  1.0  -0.1674
  C  C1548  1  0.922630  0.409290  0.243660  1.0  -0.0668
  C  C1549  1  0.898420  0.397740  0.217960  1.0  -0.1168
  C  C1550  1  0.899620  0.387750  0.194270  1.0  -0.127
  C  C1551  1  0.924890  0.389690  0.196660  1.0  -0.0948
  C  C1552  1  0.872640  0.397040  0.218760  1.0  0.6931
  C  C1553  1  0.402210  0.838570  0.617140  1.0  0.6393
  C  C1554  1  0.379650  0.843500  0.622130  1.0  -0.0943
  C  C1555  1  0.375560  0.842930  0.644330  1.0  -0.0699
  C  C1556  1  0.355690  0.847980  0.648530  1.0  -0.1521
  C  C1557  1  0.338530  0.853960  0.630790  1.0  0.057
  C  C1558  1  0.342200  0.853370  0.608950  1.0  -0.1012
  C  C1559  1  0.362520  0.849260  0.604720  1.0  -0.1308
  C  C1560  1  0.315890  0.858740  0.635490  1.0  0.0334
  C  C1561  1  0.321830  0.876750  0.661980  1.0  -0.1632
  C  C1562  1  0.300810  0.880820  0.666110  1.0  0.1113
  C  C1563  1  0.275620  0.866230  0.643690  1.0  -0.0858
  C  C1564  1  0.267230  0.847230  0.615640  1.0  0.1869
  C  C1565  1  0.287810  0.844220  0.612350  1.0  -0.1677
  C  C1566  1  0.308340  0.900770  0.693890  1.0  0.041
  C  C1567  1  0.330680  0.908530  0.718190  1.0  -0.16
  C  C1568  1  0.336810  0.927700  0.743850  1.0  -0.0879
  C  C1569  1  0.320400  0.940570  0.745610  1.0  -0.0875
  C  C1570  1  0.299140  0.933310  0.721890  1.0  -0.0928
  C  C1571  1  0.293160  0.914010  0.696750  1.0  -0.147
  C  C1572  1  0.328960  0.962310  0.773430  1.0  0.6974
  C  C1573  1  0.513290  0.682060  0.646250  1.0  0.6676
  C  C1574  1  0.534240  0.696880  0.639640  1.0  -0.137
  C  C1575  1  0.532200  0.683250  0.613590  1.0  -0.0477
  C  C1576  1  0.551440  0.696340  0.606720  1.0  -0.1329
  C  C1577  1  0.573410  0.723570  0.626000  1.0  -0.0056
  C  C1578  1  0.575120  0.737540  0.651560  1.0  -0.1765
  C  C1579  1  0.555430  0.723710  0.658000  1.0  -0.0382
  C  C1580  1  0.594570  0.739970  0.619820  1.0  0.0377
  C  C1581  1  0.606540  0.769130  0.631130  1.0  -0.1215
  C  C1582  1  0.591080  0.818040  0.615920  1.0  -0.149
  C  C1583  1  0.570990  0.819310  0.596380  1.0  0.0631
  C  C1584  1  0.547900  0.819960  0.598980  1.0  0.1269
  C  C1585  1  0.536700  0.834420  0.589720  1.0  -0.1693
  C  C1586  1  0.513340  0.834370  0.590710  1.0  -0.0707
  C  C1587  1  0.500680  0.820220  0.602260  1.0  -0.1152
  C  C1588  1  0.511870  0.806520  0.612250  1.0  -0.1274
  C  C1589  1  0.535200  0.806970  0.610310  1.0  -0.0984
  C  C1590  1  0.475600  0.821720  0.602960  1.0  0.6909
  C  C1591  1  0.778570  0.161430  0.563640  1.0  0.6372
  C  C1592  1  0.778630  0.156500  0.536150  1.0  -0.0991
  C  C1593  1  0.801400  0.157070  0.532630  1.0  -0.0671
  C  C1594  1  0.800550  0.152020  0.507710  1.0  -0.1516
  C  C1595  1  0.776830  0.146040  0.484570  1.0  0.0574
  C  C1596  1  0.755580  0.146630  0.488830  1.0  -0.097
  C  C1597  1  0.755460  0.150740  0.513260  1.0  -0.1271
  C  C1598  1  0.776750  0.141260  0.457150  1.0  0.0309
  C  C1599  1  0.785230  0.123250  0.445080  1.0  -0.1642
  C  C1600  1  0.785290  0.119180  0.419990  1.0  0.1137
  C  C1601  1  0.777460  0.133770  0.409390  1.0  -0.0882
  C  C1602  1  0.768410  0.152770  0.420000  1.0  0.1862
  C  C1603  1  0.768130  0.155780  0.443590  1.0  -0.1721
  C  C1604  1  0.793120  0.099230  0.407570  1.0  0.0381
  C  C1605  1  0.809660  0.091470  0.422150  1.0  -0.159
  C  C1606  1  0.816150  0.072300  0.409110  1.0  -0.088
  C  C1607  1  0.805040  0.059430  0.379830  1.0  -0.087
  C  C1608  1  0.788580  0.066690  0.365830  1.0  -0.0935
  C  C1609  1  0.782740  0.085990  0.379150  1.0  -0.1464
  C  C1610  1  0.811120  0.037690  0.366650  1.0  0.6959
  C  C1611  1  0.964190  0.317940  0.831230  1.0  0.6719
  C  C1612  1  0.942760  0.303120  0.837360  1.0  -0.1388
  C  C1613  1  0.930340  0.316750  0.848950  1.0  -0.0416
  C  C1614  1  0.910380  0.303660  0.855100  1.0  -0.1279
  C  C1615  1  0.902430  0.276430  0.849840  1.0  -0.0025
  C  C1616  1  0.914020  0.262460  0.837580  1.0  -0.1747
  C  C1617  1  0.934290  0.276290  0.831720  1.0  -0.0312
  C  C1618  1  0.879850  0.260030  0.854600  1.0  0.0345
  C  C1619  1  0.862000  0.230870  0.837410  1.0  -0.1241
  C  C1620  1  0.797880  0.181960  0.773040  1.0  -0.1541
  C  C1621  1  0.777070  0.180690  0.751680  1.0  0.0647
  C  C1622  1  0.779020  0.180040  0.727940  1.0  0.1277
  C  C1623  1  0.755300  0.165580  0.702280  1.0  -0.1691
  C  C1624  1  0.756340  0.165630  0.678970  1.0  -0.0643
  C  C1625  1  0.782040  0.179780  0.680460  1.0  -0.1139
  C  C1626  1  0.805730  0.193480  0.705350  1.0  -0.1248
  C  C1627  1  0.803340  0.193030  0.728230  1.0  -0.0966
  C  C1628  1  0.781240  0.178280  0.653880  1.0  0.6894
  C  C1629  1  0.597790  0.214930  0.436360  1.0  0.6399
  C  C1630  1  0.620350  0.242480  0.463850  1.0  -0.0954
  C  C1631  1  0.624440  0.268770  0.467370  1.0  -0.0653
  C  C1632  1  0.644310  0.292840  0.492290  1.0  -0.1495
  C  C1633  1  0.661470  0.292260  0.515430  1.0  0.0547
  C  C1634  1  0.657800  0.266750  0.511170  1.0  -0.1024
  C  C1635  1  0.637480  0.242200  0.486740  1.0  -0.1347
  C  C1636  1  0.684110  0.319600  0.542850  1.0  0.0314
  C  C1637  1  0.678170  0.340150  0.554920  1.0  -0.1638
  C  C1638  1  0.699190  0.365300  0.580010  1.0  0.1156
  C  C1639  1  0.724380  0.368070  0.590610  1.0  -0.0862
  C  C1640  1  0.732770  0.348410  0.580000  1.0  0.1861
  C  C1641  1  0.712190  0.324540  0.556410  1.0  -0.1689
  C  C1642  1  0.691660  0.385550  0.592430  1.0  0.0434
  C  C1643  1  0.669320  0.387510  0.577850  1.0  -0.1581
  C  C1644  1  0.663190  0.407040  0.590890  1.0  -0.0766
  C  C1645  1  0.679600  0.425210  0.620170  1.0  -0.0829
  C  C1646  1  0.700860  0.422750  0.634170  1.0  -0.1019
  C  C1647  1  0.706840  0.403590  0.620850  1.0  -0.1521
  C  C1648  1  0.671040  0.444470  0.633350  1.0  0.7007
  C  C1649  1  0.486710  0.132960  0.168770  1.0  0.6674
  C  C1650  1  0.465760  0.105400  0.162640  1.0  -0.1373
  C  C1651  1  0.467800  0.081390  0.151050  1.0  -0.0419
  C  C1652  1  0.448560  0.055280  0.144900  1.0  -0.1292
  C  C1653  1  0.426590  0.052590  0.150160  1.0  -0.0037
  C  C1654  1  0.424880  0.076440  0.162420  1.0  -0.1747
  C  C1655  1  0.444570  0.102570  0.168280  1.0  -0.0362
  C  C1656  1  0.405430  0.025250  0.145400  1.0  0.0392
  C  C1657  1  0.393460  0.024590  0.162590  1.0  -0.1187
  C  C1658  1  0.408920  0.024840  0.226960  1.0  -0.1524
  C  C1659  1  0.429010  0.025390  0.248320  1.0  0.0753
  C  C1660  1  0.452100  0.051080  0.272060  1.0  0.1316
  C  C1661  1  0.463300  0.053020  0.297720  1.0  -0.1659
  C  C1662  1  0.486660  0.077370  0.321030  1.0  -0.0685
  C  C1663  1  0.499320  0.101580  0.319540  1.0  -0.1182
  C  C1664  1  0.488130  0.100380  0.294650  1.0  -0.1249
  C  C1665  1  0.464800  0.075110  0.271770  1.0  -0.0949
  C  C1666  1  0.524400  0.127360  0.346120  1.0  0.6947
  C  C1667  1  0.221430  0.785070  0.382860  1.0  0.6404
  C  C1668  1  0.221370  0.757520  0.377870  1.0  -0.0955
  C  C1669  1  0.198600  0.731230  0.355670  1.0  -0.0697
  C  C1670  1  0.199450  0.707160  0.351470  1.0  -0.1504
  C  C1671  1  0.223170  0.707740  0.369210  1.0  0.0559
  C  C1672  1  0.244420  0.733250  0.391050  1.0  -0.0967
  C  C1673  1  0.244540  0.757800  0.395280  1.0  -0.131
  C  C1674  1  0.223250  0.680400  0.364510  1.0  0.0325
  C  C1675  1  0.214770  0.659850  0.338020  1.0  -0.1599
  C  C1676  1  0.214710  0.634700  0.333890  1.0  0.1105
  C  C1677  1  0.222540  0.631930  0.356310  1.0  -0.0858
  C  C1678  1  0.231590  0.651590  0.384360  1.0  0.1881
  C  C1679  1  0.231870  0.675460  0.387650  1.0  -0.1701
  C  C1680  1  0.206880  0.614450  0.306110  1.0  0.0433
  C  C1681  1  0.190340  0.612490  0.281810  1.0  -0.1601
  C  C1682  1  0.183850  0.592960  0.256150  1.0  -0.0778
  C  C1683  1  0.194960  0.574790  0.254390  1.0  -0.0853
  C  C1684  1  0.211420  0.577250  0.278110  1.0  -0.1015
  C  C1685  1  0.217260  0.596410  0.303250  1.0  -0.1508
  C  C1686  1  0.188880  0.555530  0.226570  1.0  0.701
  C  C1687  1  0.035810  0.867040  0.353750  1.0  0.6689
  C  C1688  1  0.057240  0.894600  0.360360  1.0  -0.1382
  C  C1689  1  0.069660  0.918610  0.386410  1.0  -0.0419
  C  C1690  1  0.089620  0.944720  0.393280  1.0  -0.1229
  C  C1691  1  0.097570  0.947410  0.374000  1.0  -0.001
  C  C1692  1  0.085980  0.923560  0.348440  1.0  -0.1783
  C  C1693  1  0.065710  0.897430  0.342000  1.0  -0.0316
  C  C1694  1  0.120150  0.974750  0.380180  1.0  0.0366
  C  C1695  1  0.138000  0.975410  0.368870  1.0  -0.1199
  C  C1696  1  0.202120  0.975160  0.384080  1.0  -0.1535
  C  C1697  1  0.222930  0.974610  0.403620  1.0  0.0635
  C  C1698  1  0.220980  0.948920  0.401020  1.0  0.1308
  C  C1699  1  0.244700  0.946980  0.410280  1.0  -0.1681
  C  C1700  1  0.243660  0.922630  0.409290  1.0  -0.0613
  C  C1701  1  0.217960  0.898420  0.397740  1.0  -0.1164
  C  C1702  1  0.194270  0.899620  0.387750  1.0  -0.1257
  C  C1703  1  0.196660  0.924890  0.389690  1.0  -0.0956
  C  C1704  1  0.218760  0.872640  0.397040  1.0  0.6948
  C  C1705  1  0.221430  0.436360  0.838570  1.0  0.639
  C  C1706  1  0.221370  0.463850  0.843500  1.0  -0.0958
  C  C1707  1  0.198600  0.467370  0.842930  1.0  -0.0673
  C  C1708  1  0.199450  0.492290  0.847980  1.0  -0.1501
  C  C1709  1  0.223170  0.515430  0.853960  1.0  0.0579
  C  C1710  1  0.244420  0.511170  0.853370  1.0  -0.101
  C  C1711  1  0.244540  0.486740  0.849260  1.0  -0.1275
  C  C1712  1  0.223250  0.542850  0.858740  1.0  0.0333
  C  C1713  1  0.214770  0.554920  0.876750  1.0  -0.164
  C  C1714  1  0.214710  0.580010  0.880820  1.0  0.1145
  C  C1715  1  0.222540  0.590610  0.866230  1.0  -0.0872
  C  C1716  1  0.231590  0.580000  0.847230  1.0  0.1876
  C  C1717  1  0.231870  0.556410  0.844220  1.0  -0.1748
  C  C1718  1  0.206880  0.592430  0.900770  1.0  0.0409
  C  C1719  1  0.190340  0.577850  0.908530  1.0  -0.1651
  C  C1720  1  0.183850  0.590890  0.927700  1.0  -0.0898
  C  C1721  1  0.194960  0.620170  0.940570  1.0  -0.0887
  C  C1722  1  0.211420  0.634170  0.933310  1.0  -0.0951
  C  C1723  1  0.217260  0.620850  0.914010  1.0  -0.1487
  C  C1724  1  0.188880  0.633350  0.962310  1.0  0.6961
  C  C1725  1  0.035810  0.168770  0.682060  1.0  0.6716
  C  C1726  1  0.057240  0.162640  0.696880  1.0  -0.1386
  C  C1727  1  0.069660  0.151050  0.683250  1.0  -0.0405
  C  C1728  1  0.089620  0.144900  0.696340  1.0  -0.1246
  C  C1729  1  0.097570  0.150160  0.723570  1.0  -0.003
  C  C1730  1  0.085980  0.162420  0.737540  1.0  -0.1751
  C  C1731  1  0.065710  0.168280  0.723710  1.0  -0.034
  C  C1732  1  0.120150  0.145400  0.739970  1.0  0.035
  C  C1733  1  0.138000  0.162590  0.769130  1.0  -0.1205
  C  C1734  1  0.202120  0.226960  0.818040  1.0  -0.1508
  C  C1735  1  0.222930  0.248320  0.819310  1.0  0.0642
  C  C1736  1  0.220980  0.272060  0.819960  1.0  0.1279
  C  C1737  1  0.244700  0.297720  0.834420  1.0  -0.1685
  C  C1738  1  0.243660  0.321030  0.834370  1.0  -0.0634
  C  C1739  1  0.217960  0.319540  0.820220  1.0  -0.1157
  C  C1740  1  0.194270  0.294650  0.806520  1.0  -0.122
  C  C1741  1  0.196660  0.271770  0.806970  1.0  -0.0969
  C  C1742  1  0.218760  0.346120  0.821720  1.0  0.6899
  C  C1743  1  0.597790  0.382860  0.161430  1.0  0.6385
  C  C1744  1  0.620350  0.377870  0.156500  1.0  -0.092
  C  C1745  1  0.624440  0.355670  0.157070  1.0  -0.0679
  C  C1746  1  0.644310  0.351470  0.152020  1.0  -0.1571
  C  C1747  1  0.661470  0.369210  0.146040  1.0  0.0547
  C  C1748  1  0.657800  0.391050  0.146630  1.0  -0.0983
  C  C1749  1  0.637480  0.395280  0.150740  1.0  -0.1334
  C  C1750  1  0.684110  0.364510  0.141260  1.0  0.0303
  C  C1751  1  0.678170  0.338020  0.123250  1.0  -0.1604
  C  C1752  1  0.699190  0.333890  0.119180  1.0  0.1124
  C  C1753  1  0.724380  0.356310  0.133770  1.0  -0.0872
  C  C1754  1  0.732770  0.384360  0.152770  1.0  0.1856
  C  C1755  1  0.712190  0.387650  0.155780  1.0  -0.1743
  C  C1756  1  0.691660  0.306110  0.099230  1.0  0.0406
  C  C1757  1  0.669320  0.281810  0.091470  1.0  -0.1622
  C  C1758  1  0.663190  0.256150  0.072300  1.0  -0.0891
  C  C1759  1  0.679600  0.254390  0.059430  1.0  -0.0869
  C  C1760  1  0.700860  0.278110  0.066690  1.0  -0.0927
  C  C1761  1  0.706840  0.303250  0.085990  1.0  -0.1493
  C  C1762  1  0.671040  0.226570  0.037690  1.0  0.6972
  C  C1763  1  0.486710  0.353750  0.317940  1.0  0.6668
  C  C1764  1  0.465760  0.360360  0.303120  1.0  -0.138
  C  C1765  1  0.467800  0.386410  0.316750  1.0  -0.0462
  C  C1766  1  0.448560  0.393280  0.303660  1.0  -0.1337
  C  C1767  1  0.426590  0.374000  0.276430  1.0  -0.0045
  C  C1768  1  0.424880  0.348440  0.262460  1.0  -0.1747
  C  C1769  1  0.444570  0.342000  0.276290  1.0  -0.0366
  C  C1770  1  0.405430  0.380180  0.260030  1.0  0.0376
  C  C1771  1  0.393460  0.368870  0.230870  1.0  -0.121
  C  C1772  1  0.408920  0.384080  0.181960  1.0  -0.1529
  C  C1773  1  0.429010  0.403620  0.180690  1.0  0.063
  C  C1774  1  0.452100  0.401020  0.180040  1.0  0.1273
  C  C1775  1  0.463300  0.410280  0.165580  1.0  -0.1676
  C  C1776  1  0.486660  0.409290  0.165630  1.0  -0.0701
  C  C1777  1  0.499320  0.397740  0.179780  1.0  -0.1154
  C  C1778  1  0.488130  0.387750  0.193480  1.0  -0.1274
  C  C1779  1  0.464800  0.389690  0.193030  1.0  -0.0961
  C  C1780  1  0.524400  0.397040  0.178280  1.0  0.6899
  C  C1781  1  0.778570  0.617140  0.214930  1.0  0.64
  C  C1782  1  0.778630  0.622130  0.242480  1.0  -0.0946
  C  C1783  1  0.801400  0.644330  0.268770  1.0  -0.0661
  C  C1784  1  0.800550  0.648530  0.292840  1.0  -0.153
  C  C1785  1  0.776830  0.630790  0.292260  1.0  0.0534
  C  C1786  1  0.755580  0.608950  0.266750  1.0  -0.0979
  C  C1787  1  0.755460  0.604720  0.242200  1.0  -0.1326
  C  C1788  1  0.776750  0.635490  0.319600  1.0  0.0304
  C  C1789  1  0.785230  0.661980  0.340150  1.0  -0.1599
  C  C1790  1  0.785290  0.666110  0.365300  1.0  0.1139
  C  C1791  1  0.777460  0.643690  0.368070  1.0  -0.0849
  C  C1792  1  0.768410  0.615640  0.348410  1.0  0.186
  C  C1793  1  0.768130  0.612350  0.324540  1.0  -0.1666
  C  C1794  1  0.793120  0.693890  0.385550  1.0  0.0433
  C  C1795  1  0.809660  0.718190  0.387510  1.0  -0.1582
  C  C1796  1  0.816150  0.743850  0.407040  1.0  -0.0799
  C  C1797  1  0.805040  0.745610  0.425210  1.0  -0.0822
  C  C1798  1  0.788580  0.721890  0.422750  1.0  -0.1008
  C  C1799  1  0.782740  0.696750  0.403590  1.0  -0.1531
  C  C1800  1  0.811120  0.773430  0.444470  1.0  0.7007
  C  C1801  1  0.964190  0.646250  0.132960  1.0  0.6693
  C  C1802  1  0.942760  0.639640  0.105400  1.0  -0.1377
  C  C1803  1  0.930340  0.613590  0.081390  1.0  -0.0413
  C  C1804  1  0.910380  0.606720  0.055280  1.0  -0.1237
  C  C1805  1  0.902430  0.626000  0.052590  1.0  -0.0017
  C  C1806  1  0.914020  0.651560  0.076440  1.0  -0.1784
  C  C1807  1  0.934290  0.658000  0.102570  1.0  -0.0289
  C  C1808  1  0.879850  0.619820  0.025250  1.0  0.0369
  C  C1809  1  0.862000  0.631130  0.024590  1.0  -0.1216
  C  C1810  1  0.797880  0.615920  0.024840  1.0  -0.1559
  C  C1811  1  0.777070  0.596380  0.025390  1.0  0.0656
  C  C1812  1  0.779020  0.598980  0.051080  1.0  0.1314
  C  C1813  1  0.755300  0.589720  0.053020  1.0  -0.1697
  C  C1814  1  0.756340  0.590710  0.077370  1.0  -0.0635
  C  C1815  1  0.782040  0.602260  0.101580  1.0  -0.116
  C  C1816  1  0.805730  0.612250  0.100380  1.0  -0.1252
  C  C1817  1  0.803340  0.610310  0.075110  1.0  -0.0948
  C  C1818  1  0.781240  0.602960  0.127360  1.0  0.6943
  C  C1819  1  0.402210  0.563640  0.785070  1.0  0.6422
  C  C1820  1  0.379650  0.536150  0.757520  1.0  -0.0966
  C  C1821  1  0.375560  0.532630  0.731230  1.0  -0.0683
  C  C1822  1  0.355690  0.507710  0.707160  1.0  -0.1487
  C  C1823  1  0.338530  0.484570  0.707740  1.0  0.0585
  C  C1824  1  0.342200  0.488830  0.733250  1.0  -0.1012
  C  C1825  1  0.362520  0.513260  0.757800  1.0  -0.1321
  C  C1826  1  0.315890  0.457150  0.680400  1.0  0.0317
  C  C1827  1  0.321830  0.445080  0.659850  1.0  -0.1672
  C  C1828  1  0.300810  0.419990  0.634700  1.0  0.1127
  C  C1829  1  0.275620  0.409390  0.631930  1.0  -0.085
  C  C1830  1  0.267230  0.420000  0.651590  1.0  0.1893
  C  C1831  1  0.287810  0.443590  0.675460  1.0  -0.1657
  C  C1832  1  0.308340  0.407570  0.614450  1.0  0.0419
  C  C1833  1  0.330680  0.422150  0.612490  1.0  -0.1595
  C  C1834  1  0.336810  0.409110  0.592960  1.0  -0.079
  C  C1835  1  0.320400  0.379830  0.574790  1.0  -0.0842
  C  C1836  1  0.299140  0.365830  0.577250  1.0  -0.1011
  C  C1837  1  0.293160  0.379150  0.596410  1.0  -0.1563
  C  C1838  1  0.328960  0.366650  0.555530  1.0  0.7007
  C  C1839  1  0.513290  0.831230  0.867040  1.0  0.6674
  C  C1840  1  0.534240  0.837360  0.894600  1.0  -0.1387
  C  C1841  1  0.532200  0.848950  0.918610  1.0  -0.044
  C  C1842  1  0.551440  0.855100  0.944720  1.0  -0.1313
  C  C1843  1  0.573410  0.849840  0.947410  1.0  -0.0062
  C  C1844  1  0.575120  0.837580  0.923560  1.0  -0.1741
  C  C1845  1  0.555430  0.831720  0.897430  1.0  -0.0351
  C  C1846  1  0.594570  0.854600  0.974750  1.0  0.0385
  C  C1847  1  0.606540  0.837410  0.975410  1.0  -0.1214
  C  C1848  1  0.591080  0.773040  0.975160  1.0  -0.1514
  C  C1849  1  0.570990  0.751680  0.974610  1.0  0.0748
  C  C1850  1  0.547900  0.727940  0.948920  1.0  0.1323
  C  C1851  1  0.536700  0.702280  0.946980  1.0  -0.1681
  C  C1852  1  0.513340  0.678970  0.922630  1.0  -0.0693
  C  C1853  1  0.500680  0.680460  0.898420  1.0  -0.1178
  C  C1854  1  0.511870  0.705350  0.899620  1.0  -0.1246
  C  C1855  1  0.535200  0.728230  0.924890  1.0  -0.0955
  C  C1856  1  0.475600  0.653880  0.872640  1.0  0.6939
  C  C1857  1  0.563640  0.785070  0.402210  1.0  0.6436
  C  C1858  1  0.536150  0.757520  0.379650  1.0  -0.0955
  C  C1859  1  0.532630  0.731230  0.375560  1.0  -0.0678
  C  C1860  1  0.507710  0.707160  0.355690  1.0  -0.1504
  C  C1861  1  0.484570  0.707740  0.338530  1.0  0.0547
  C  C1862  1  0.488830  0.733250  0.342200  1.0  -0.0968
  C  C1863  1  0.513260  0.757800  0.362520  1.0  -0.1314
  C  C1864  1  0.457150  0.680400  0.315890  1.0  0.0324
  C  C1865  1  0.445080  0.659850  0.321830  1.0  -0.1656
  C  C1866  1  0.419990  0.634700  0.300810  1.0  0.1133
  C  C1867  1  0.409390  0.631930  0.275620  1.0  -0.0863
  C  C1868  1  0.420000  0.651590  0.267230  1.0  0.1874
  C  C1869  1  0.443590  0.675460  0.287810  1.0  -0.1717
  C  C1870  1  0.407570  0.614450  0.308340  1.0  0.0443
  C  C1871  1  0.422150  0.612490  0.330680  1.0  -0.1577
  C  C1872  1  0.409110  0.592960  0.336810  1.0  -0.0779
  C  C1873  1  0.379830  0.574790  0.320400  1.0  -0.0838
  C  C1874  1  0.365830  0.577250  0.299140  1.0  -0.0997
  C  C1875  1  0.379150  0.596410  0.293160  1.0  -0.1518
  C  C1876  1  0.366650  0.555530  0.328960  1.0  0.701
  C  C1877  1  0.831230  0.867040  0.513290  1.0  0.6672
  C  C1878  1  0.837360  0.894600  0.534240  1.0  -0.1373
  C  C1879  1  0.848950  0.918610  0.532200  1.0  -0.0441
  C  C1880  1  0.855100  0.944720  0.551440  1.0  -0.1309
  C  C1881  1  0.849840  0.947410  0.573410  1.0  -0.0051
  C  C1882  1  0.837580  0.923560  0.575120  1.0  -0.1757
  C  C1883  1  0.831720  0.897430  0.555430  1.0  -0.038
  C  C1884  1  0.854600  0.974750  0.594570  1.0  0.0357
  C  C1885  1  0.837410  0.975410  0.606540  1.0  -0.1213
  C  C1886  1  0.773040  0.975160  0.591080  1.0  -0.1512
  C  C1887  1  0.751680  0.974610  0.570990  1.0  0.0741
  C  C1888  1  0.727940  0.948920  0.547900  1.0  0.1322
  C  C1889  1  0.702280  0.946980  0.536700  1.0  -0.1658
  C  C1890  1  0.678970  0.922630  0.513340  1.0  -0.0657
  C  C1891  1  0.680460  0.898420  0.500680  1.0  -0.1181
  C  C1892  1  0.705350  0.899620  0.511870  1.0  -0.1247
  C  C1893  1  0.728230  0.924890  0.535200  1.0  -0.094
  C  C1894  1  0.653880  0.872640  0.475600  1.0  0.695
  C  C1895  1  0.617140  0.214930  0.778570  1.0  0.6367
  C  C1896  1  0.622130  0.242480  0.778630  1.0  -0.0962
  C  C1897  1  0.644330  0.268770  0.801400  1.0  -0.0634
  C  C1898  1  0.648530  0.292840  0.800550  1.0  -0.1497
  C  C1899  1  0.630790  0.292260  0.776830  1.0  0.0557
  C  C1900  1  0.608950  0.266750  0.755580  1.0  -0.0996
  C  C1901  1  0.604720  0.242200  0.755460  1.0  -0.1325
  C  C1902  1  0.635490  0.319600  0.776750  1.0  0.0335
  C  C1903  1  0.661980  0.340150  0.785230  1.0  -0.1595
  C  C1904  1  0.666110  0.365300  0.785290  1.0  0.1149
  C  C1905  1  0.643690  0.368070  0.777460  1.0  -0.0878
  C  C1906  1  0.615640  0.348410  0.768410  1.0  0.1886
  C  C1907  1  0.612350  0.324540  0.768130  1.0  -0.1698
  C  C1908  1  0.693890  0.385550  0.793120  1.0  0.0428
  C  C1909  1  0.718190  0.387510  0.809660  1.0  -0.1567
  C  C1910  1  0.743850  0.407040  0.816150  1.0  -0.0768
  C  C1911  1  0.745610  0.425210  0.805040  1.0  -0.0829
  C  C1912  1  0.721890  0.422750  0.788580  1.0  -0.1016
  C  C1913  1  0.696750  0.403590  0.782740  1.0  -0.1514
  C  C1914  1  0.773430  0.444470  0.811120  1.0  0.7008
  C  C1915  1  0.646250  0.132960  0.964190  1.0  0.669
  C  C1916  1  0.639640  0.105400  0.942760  1.0  -0.1383
  C  C1917  1  0.613590  0.081390  0.930340  1.0  -0.0383
  C  C1918  1  0.606720  0.055280  0.910380  1.0  -0.1227
  C  C1919  1  0.626000  0.052590  0.902430  1.0  -0.0
  C  C1920  1  0.651560  0.076440  0.914020  1.0  -0.1768
  C  C1921  1  0.658000  0.102570  0.934290  1.0  -0.0275
  C  C1922  1  0.619820  0.025250  0.879850  1.0  0.0406
  C  C1923  1  0.631130  0.024590  0.862000  1.0  -0.1204
  C  C1924  1  0.615920  0.024840  0.797880  1.0  -0.1566
  C  C1925  1  0.596380  0.025390  0.777070  1.0  0.0644
  C  C1926  1  0.598980  0.051080  0.779020  1.0  0.1317
  C  C1927  1  0.589720  0.053020  0.755300  1.0  -0.1691
  C  C1928  1  0.590710  0.077370  0.756340  1.0  -0.0649
  C  C1929  1  0.602260  0.101580  0.782040  1.0  -0.1169
  C  C1930  1  0.612250  0.100380  0.805730  1.0  -0.127
  C  C1931  1  0.610310  0.075110  0.803340  1.0  -0.0952
  C  C1932  1  0.602960  0.127360  0.781240  1.0  0.6944
  C  C1933  1  0.382860  0.161430  0.597790  1.0  0.6397
  C  C1934  1  0.377870  0.156500  0.620350  1.0  -0.0979
  C  C1935  1  0.355670  0.157070  0.624440  1.0  -0.0672
  C  C1936  1  0.351470  0.152020  0.644310  1.0  -0.1491
  C  C1937  1  0.369210  0.146040  0.661470  1.0  0.0562
  C  C1938  1  0.391050  0.146630  0.657800  1.0  -0.0976
  C  C1939  1  0.395280  0.150740  0.637480  1.0  -0.127
  C  C1940  1  0.364510  0.141260  0.684110  1.0  0.0324
  C  C1941  1  0.338020  0.123250  0.678170  1.0  -0.1596
  C  C1942  1  0.333890  0.119180  0.699190  1.0  0.1104
  C  C1943  1  0.356310  0.133770  0.724380  1.0  -0.0869
  C  C1944  1  0.384360  0.152770  0.732770  1.0  0.1861
  C  C1945  1  0.387650  0.155780  0.712190  1.0  -0.1647
  C  C1946  1  0.306110  0.099230  0.691660  1.0  0.0393
  C  C1947  1  0.281810  0.091470  0.669320  1.0  -0.1604
  C  C1948  1  0.256150  0.072300  0.663190  1.0  -0.0899
  C  C1949  1  0.254390  0.059430  0.679600  1.0  -0.0874
  C  C1950  1  0.278110  0.066690  0.700860  1.0  -0.0946
  C  C1951  1  0.303250  0.085990  0.706840  1.0  -0.1467
  C  C1952  1  0.226570  0.037690  0.671040  1.0  0.6968
  C  C1953  1  0.353750  0.317940  0.486710  1.0  0.668
  C  C1954  1  0.360360  0.303120  0.465760  1.0  -0.1364
  C  C1955  1  0.386410  0.316750  0.467800  1.0  -0.0449
  C  C1956  1  0.393280  0.303660  0.448560  1.0  -0.1315
  C  C1957  1  0.374000  0.276430  0.426590  1.0  -0.0063
  C  C1958  1  0.348440  0.262460  0.424880  1.0  -0.1738
  C  C1959  1  0.342000  0.276290  0.444570  1.0  -0.0359
  C  C1960  1  0.380180  0.260030  0.405430  1.0  0.0354
  C  C1961  1  0.368870  0.230870  0.393460  1.0  -0.1212
  C  C1962  1  0.384080  0.181960  0.408920  1.0  -0.1524
  C  C1963  1  0.403620  0.180690  0.429010  1.0  0.0651
  C  C1964  1  0.401020  0.180040  0.452100  1.0  0.1279
  C  C1965  1  0.410280  0.165580  0.463300  1.0  -0.1678
  C  C1966  1  0.409290  0.165630  0.486660  1.0  -0.0694
  C  C1967  1  0.397740  0.179780  0.499320  1.0  -0.1147
  C  C1968  1  0.387750  0.193480  0.488130  1.0  -0.1275
  C  C1969  1  0.389690  0.193030  0.464800  1.0  -0.0969
  C  C1970  1  0.397040  0.178280  0.524400  1.0  0.691
  C  C1971  1  0.436360  0.838570  0.221430  1.0  0.6365
  C  C1972  1  0.463850  0.843500  0.221370  1.0  -0.0935
  C  C1973  1  0.467370  0.842930  0.198600  1.0  -0.0705
  C  C1974  1  0.492290  0.847980  0.199450  1.0  -0.1506
  C  C1975  1  0.515430  0.853960  0.223170  1.0  0.0572
  C  C1976  1  0.511170  0.853370  0.244420  1.0  -0.1011
  C  C1977  1  0.486740  0.849260  0.244540  1.0  -0.1294
  C  C1978  1  0.542850  0.858740  0.223250  1.0  0.031
  C  C1979  1  0.554920  0.876750  0.214770  1.0  -0.1672
  C  C1980  1  0.580010  0.880820  0.214710  1.0  0.1148
  C  C1981  1  0.590610  0.866230  0.222540  1.0  -0.0867
  C  C1982  1  0.580000  0.847230  0.231590  1.0  0.187
  C  C1983  1  0.556410  0.844220  0.231870  1.0  -0.1714
  C  C1984  1  0.592430  0.900770  0.206880  1.0  0.0397
  C  C1985  1  0.577850  0.908530  0.190340  1.0  -0.1627
  C  C1986  1  0.590890  0.927700  0.183850  1.0  -0.088
  C  C1987  1  0.620170  0.940570  0.194960  1.0  -0.0882
  C  C1988  1  0.634170  0.933310  0.211420  1.0  -0.0926
  C  C1989  1  0.620850  0.914010  0.217260  1.0  -0.1442
  C  C1990  1  0.633350  0.962310  0.188880  1.0  0.6965
  C  C1991  1  0.168770  0.682060  0.035810  1.0  0.6718
  C  C1992  1  0.162640  0.696880  0.057240  1.0  -0.1391
  C  C1993  1  0.151050  0.683250  0.069660  1.0  -0.0427
  C  C1994  1  0.144900  0.696340  0.089620  1.0  -0.1276
  C  C1995  1  0.150160  0.723570  0.097570  1.0  -0.0019
  C  C1996  1  0.162420  0.737540  0.085980  1.0  -0.1763
  C  C1997  1  0.168280  0.723710  0.065710  1.0  -0.0334
  C  C1998  1  0.145400  0.739970  0.120150  1.0  0.0377
  C  C1999  1  0.162590  0.769130  0.138000  1.0  -0.1209
  C  C2000  1  0.226960  0.818040  0.202120  1.0  -0.1521
  C  C2001  1  0.248320  0.819310  0.222930  1.0  0.0635
  C  C2002  1  0.272060  0.819960  0.220980  1.0  0.1272
  C  C2003  1  0.297720  0.834420  0.244700  1.0  -0.1704
  C  C2004  1  0.321030  0.834370  0.243660  1.0  -0.064
  C  C2005  1  0.319540  0.820220  0.217960  1.0  -0.1141
  C  C2006  1  0.294650  0.806520  0.194270  1.0  -0.1243
  C  C2007  1  0.271770  0.806970  0.196660  1.0  -0.0998
  C  C2008  1  0.346120  0.821720  0.218760  1.0  0.6885
  C  C2009  1  0.214930  0.778570  0.617140  1.0  0.6359
  C  C2010  1  0.242480  0.778630  0.622130  1.0  -0.0951
  C  C2011  1  0.268770  0.801400  0.644330  1.0  -0.0694
  C  C2012  1  0.292840  0.800550  0.648530  1.0  -0.1507
  C  C2013  1  0.292260  0.776830  0.630790  1.0  0.0582
  C  C2014  1  0.266750  0.755580  0.608950  1.0  -0.1002
  C  C2015  1  0.242200  0.755460  0.604720  1.0  -0.1293
  C  C2016  1  0.319600  0.776750  0.635490  1.0  0.0318
  C  C2017  1  0.340150  0.785230  0.661980  1.0  -0.1618
  C  C2018  1  0.365300  0.785290  0.666110  1.0  0.1126
  C  C2019  1  0.368070  0.777460  0.643690  1.0  -0.0862
  C  C2020  1  0.348410  0.768410  0.615640  1.0  0.1863
  C  C2021  1  0.324540  0.768130  0.612350  1.0  -0.1705
  C  C2022  1  0.385550  0.793120  0.693890  1.0  0.0433
  C  C2023  1  0.387510  0.809660  0.718190  1.0  -0.163
  C  C2024  1  0.407040  0.816150  0.743850  1.0  -0.079
  C  C2025  1  0.425210  0.805040  0.745610  1.0  -0.0845
  C  C2026  1  0.422750  0.788580  0.721890  1.0  -0.1001
  C  C2027  1  0.403590  0.782740  0.696750  1.0  -0.1525
  C  C2028  1  0.444470  0.811120  0.773430  1.0  0.7007
  C  C2029  1  0.132960  0.964190  0.646250  1.0  0.6693
  C  C2030  1  0.105400  0.942760  0.639640  1.0  -0.1381
  C  C2031  1  0.081390  0.930340  0.613590  1.0  -0.0403
  C  C2032  1  0.055280  0.910380  0.606720  1.0  -0.1243
  C  C2033  1  0.052590  0.902430  0.626000  1.0  -0.0007
  C  C2034  1  0.076440  0.914020  0.651560  1.0  -0.1778
  C  C2035  1  0.102570  0.934290  0.658000  1.0  -0.031
  C  C2036  1  0.025250  0.879850  0.619820  1.0  0.0385
  C  C2037  1  0.024590  0.862000  0.631130  1.0  -0.1213
  C  C2038  1  0.024840  0.797880  0.615920  1.0  -0.1563
  C  C2039  1  0.025390  0.777070  0.596380  1.0  0.0631
  C  C2040  1  0.051080  0.779020  0.598980  1.0  0.131
  C  C2041  1  0.053020  0.755300  0.589720  1.0  -0.1722
  C  C2042  1  0.077370  0.756340  0.590710  1.0  -0.0649
  C  C2043  1  0.101580  0.782040  0.602260  1.0  -0.1154
  C  C2044  1  0.100380  0.805730  0.612250  1.0  -0.1255
  C  C2045  1  0.075110  0.803340  0.610310  1.0  -0.0981
  C  C2046  1  0.127360  0.781240  0.602960  1.0  0.694
  C  C2047  1  0.785070  0.402210  0.563640  1.0  0.6407
  C  C2048  1  0.757520  0.379650  0.536150  1.0  -0.0949
  C  C2049  1  0.731230  0.375560  0.532630  1.0  -0.0646
  C  C2050  1  0.707160  0.355690  0.507710  1.0  -0.1511
  C  C2051  1  0.707740  0.338530  0.484570  1.0  0.0549
  C  C2052  1  0.733250  0.342200  0.488830  1.0  -0.0991
  C  C2053  1  0.757800  0.362520  0.513260  1.0  -0.1291
  C  C2054  1  0.680400  0.315890  0.457150  1.0  0.0332
  C  C2055  1  0.659850  0.321830  0.445080  1.0  -0.1666
  C  C2056  1  0.634700  0.300810  0.419990  1.0  0.1142
  C  C2057  1  0.631930  0.275620  0.409390  1.0  -0.0863
  C  C2058  1  0.651590  0.267230  0.420000  1.0  0.1867
  C  C2059  1  0.675460  0.287810  0.443590  1.0  -0.1687
  C  C2060  1  0.614450  0.308340  0.407570  1.0  0.0432
  C  C2061  1  0.612490  0.330680  0.422150  1.0  -0.1631
  C  C2062  1  0.592960  0.336810  0.409110  1.0  -0.0807
  C  C2063  1  0.574790  0.320400  0.379830  1.0  -0.084
  C  C2064  1  0.577250  0.299140  0.365830  1.0  -0.1009
  C  C2065  1  0.596410  0.293160  0.379150  1.0  -0.1569
  C  C2066  1  0.555530  0.328960  0.366650  1.0  0.6999
  C  C2067  1  0.867040  0.513290  0.831230  1.0  0.6673
  C  C2068  1  0.894600  0.534240  0.837360  1.0  -0.1367
  C  C2069  1  0.918610  0.532200  0.848950  1.0  -0.0437
  C  C2070  1  0.944720  0.551440  0.855100  1.0  -0.1293
  C  C2071  1  0.947410  0.573410  0.849840  1.0  -0.0035
  C  C2072  1  0.923560  0.575120  0.837580  1.0  -0.1749
  C  C2073  1  0.897430  0.555430  0.831720  1.0  -0.034
  C  C2074  1  0.974750  0.594570  0.854600  1.0  0.0384
  C  C2075  1  0.975410  0.606540  0.837410  1.0  -0.1205
  C  C2076  1  0.975160  0.591080  0.773040  1.0  -0.1514
  C  C2077  1  0.974610  0.570990  0.751680  1.0  0.0735
  C  C2078  1  0.948920  0.547900  0.727940  1.0  0.1307
  C  C2079  1  0.946980  0.536700  0.702280  1.0  -0.1678
  C  C2080  1  0.922630  0.513340  0.678970  1.0  -0.069
  C  C2081  1  0.898420  0.500680  0.680460  1.0  -0.118
  C  C2082  1  0.899620  0.511870  0.705350  1.0  -0.127
  C  C2083  1  0.924890  0.535200  0.728230  1.0  -0.0951
  C  C2084  1  0.872640  0.475600  0.653880  1.0  0.6938
  C  C2085  1  0.838570  0.221430  0.436360  1.0  0.6392
  C  C2086  1  0.843500  0.221370  0.463850  1.0  -0.0976
  C  C2087  1  0.842930  0.198600  0.467370  1.0  -0.065
  C  C2088  1  0.847980  0.199450  0.492290  1.0  -0.1493
  C  C2089  1  0.853960  0.223170  0.515430  1.0  0.0563
  C  C2090  1  0.853370  0.244420  0.511170  1.0  -0.096
  C  C2091  1  0.849260  0.244540  0.486740  1.0  -0.1242
  C  C2092  1  0.858740  0.223250  0.542850  1.0  0.0319
  C  C2093  1  0.876750  0.214770  0.554920  1.0  -0.1653
  C  C2094  1  0.880820  0.214710  0.580010  1.0  0.1137
  C  C2095  1  0.866230  0.222540  0.590610  1.0  -0.0862
  C  C2096  1  0.847230  0.231590  0.580000  1.0  0.1888
  C  C2097  1  0.844220  0.231870  0.556410  1.0  -0.1719
  C  C2098  1  0.900770  0.206880  0.592430  1.0  0.0392
  C  C2099  1  0.908530  0.190340  0.577850  1.0  -0.1619
  C  C2100  1  0.927700  0.183850  0.590890  1.0  -0.0903
  C  C2101  1  0.940570  0.194960  0.620170  1.0  -0.0865
  C  C2102  1  0.933310  0.211420  0.634170  1.0  -0.0947
  C  C2103  1  0.914010  0.217260  0.620850  1.0  -0.1482
  C  C2104  1  0.962310  0.188880  0.633350  1.0  0.6957
  C  C2105  1  0.682060  0.035810  0.168770  1.0  0.6718
  C  C2106  1  0.696880  0.057240  0.162640  1.0  -0.1385
  C  C2107  1  0.683250  0.069660  0.151050  1.0  -0.0359
  C  C2108  1  0.696340  0.089620  0.144900  1.0  -0.1245
  C  C2109  1  0.723570  0.097570  0.150160  1.0  -0.0014
  C  C2110  1  0.737540  0.085980  0.162420  1.0  -0.1749
  C  C2111  1  0.723710  0.065710  0.168280  1.0  -0.0293
  C  C2112  1  0.739970  0.120150  0.145400  1.0  0.0368
  C  C2113  1  0.769130  0.138000  0.162590  1.0  -0.121
  C  C2114  1  0.818040  0.202120  0.226960  1.0  -0.1529
  C  C2115  1  0.819310  0.222930  0.248320  1.0  0.0649
  C  C2116  1  0.819960  0.220980  0.272060  1.0  0.1277
  C  C2117  1  0.834420  0.244700  0.297720  1.0  -0.1694
  C  C2118  1  0.834370  0.243660  0.321030  1.0  -0.0644
  C  C2119  1  0.820220  0.217960  0.319540  1.0  -0.1147
  C  C2120  1  0.806520  0.194270  0.294650  1.0  -0.1243
  C  C2121  1  0.806970  0.196660  0.271770  1.0  -0.0975
  C  C2122  1  0.821720  0.218760  0.346120  1.0  0.688
  C  C2123  1  0.161430  0.597790  0.382860  1.0  0.6413
  C  C2124  1  0.156500  0.620350  0.377870  1.0  -0.0958
  C  C2125  1  0.157070  0.624440  0.355670  1.0  -0.0691
  C  C2126  1  0.152020  0.644310  0.351470  1.0  -0.1513
  C  C2127  1  0.146040  0.661470  0.369210  1.0  0.0543
  C  C2128  1  0.146630  0.657800  0.391050  1.0  -0.1
  C  C2129  1  0.150740  0.637480  0.395280  1.0  -0.1285
  C  C2130  1  0.141260  0.684110  0.364510  1.0  0.0317
  C  C2131  1  0.123250  0.678170  0.338020  1.0  -0.1602
  C  C2132  1  0.119180  0.699190  0.333890  1.0  0.1105
  C  C2133  1  0.133770  0.724380  0.356310  1.0  -0.0858
  C  C2134  1  0.152770  0.732770  0.384360  1.0  0.1874
  C  C2135  1  0.155780  0.712190  0.387650  1.0  -0.1648
  C  C2136  1  0.099230  0.691660  0.306110  1.0  0.039
  C  C2137  1  0.091470  0.669320  0.281810  1.0  -0.1623
  C  C2138  1  0.072300  0.663190  0.256150  1.0  -0.091
  C  C2139  1  0.059430  0.679600  0.254390  1.0  -0.0886
  C  C2140  1  0.066690  0.700860  0.278110  1.0  -0.0932
  C  C2141  1  0.085990  0.706840  0.303250  1.0  -0.147
  C  C2142  1  0.037690  0.671040  0.226570  1.0  0.6969
  C  C2143  1  0.317940  0.486710  0.353750  1.0  0.6673
  C  C2144  1  0.303120  0.465760  0.360360  1.0  -0.1379
  C  C2145  1  0.316750  0.467800  0.386410  1.0  -0.044
  C  C2146  1  0.303660  0.448560  0.393280  1.0  -0.1294
  C  C2147  1  0.276430  0.426590  0.374000  1.0  -0.0065
  C  C2148  1  0.262460  0.424880  0.348440  1.0  -0.1743
  C  C2149  1  0.276290  0.444570  0.342000  1.0  -0.0343
  C  C2150  1  0.260030  0.405430  0.380180  1.0  0.0362
  C  C2151  1  0.230870  0.393460  0.368870  1.0  -0.1206
  C  C2152  1  0.181960  0.408920  0.384080  1.0  -0.1506
  C  C2153  1  0.180690  0.429010  0.403620  1.0  0.0638
  C  C2154  1  0.180040  0.452100  0.401020  1.0  0.1265
  C  C2155  1  0.165580  0.463300  0.410280  1.0  -0.1695
  C  C2156  1  0.165630  0.486660  0.409290  1.0  -0.0703
  C  C2157  1  0.179780  0.499320  0.397740  1.0  -0.115
  C  C2158  1  0.193480  0.488130  0.387750  1.0  -0.1269
  C  C2159  1  0.193030  0.464800  0.389690  1.0  -0.0987
  C  C2160  1  0.178280  0.524400  0.397040  1.0  0.6908
  C  C2161  1  0.382860  0.597790  0.161430  1.0  0.6401
  C  C2162  1  0.377870  0.620350  0.156500  1.0  -0.0955
  C  C2163  1  0.355670  0.624440  0.157070  1.0  -0.0637
  C  C2164  1  0.351470  0.644310  0.152020  1.0  -0.1503
  C  C2165  1  0.369210  0.661470  0.146040  1.0  0.0558
  C  C2166  1  0.391050  0.657800  0.146630  1.0  -0.0979
  C  C2167  1  0.395280  0.637480  0.150740  1.0  -0.129
  C  C2168  1  0.364510  0.684110  0.141260  1.0  0.0335
  C  C2169  1  0.338020  0.678170  0.123250  1.0  -0.1597
  C  C2170  1  0.333890  0.699190  0.119180  1.0  0.1114
  C  C2171  1  0.356310  0.724380  0.133770  1.0  -0.0866
  C  C2172  1  0.384360  0.732770  0.152770  1.0  0.1864
  C  C2173  1  0.387650  0.712190  0.155780  1.0  -0.1677
  C  C2174  1  0.306110  0.691660  0.099230  1.0  0.0392
  C  C2175  1  0.281810  0.669320  0.091470  1.0  -0.1645
  C  C2176  1  0.256150  0.663190  0.072300  1.0  -0.0912
  C  C2177  1  0.254390  0.679600  0.059430  1.0  -0.0883
  C  C2178  1  0.278110  0.700860  0.066690  1.0  -0.0951
  C  C2179  1  0.303250  0.706840  0.085990  1.0  -0.1508
  C  C2180  1  0.226570  0.671040  0.037690  1.0  0.6964
  C  C2181  1  0.353750  0.486710  0.317940  1.0  0.6673
  C  C2182  1  0.360360  0.465760  0.303120  1.0  -0.1366
  C  C2183  1  0.386410  0.467800  0.316750  1.0  -0.044
  C  C2184  1  0.393280  0.448560  0.303660  1.0  -0.129
  C  C2185  1  0.374000  0.426590  0.276430  1.0  -0.0038
  C  C2186  1  0.348440  0.424880  0.262460  1.0  -0.1742
  C  C2187  1  0.342000  0.444570  0.276290  1.0  -0.0336
  C  C2188  1  0.380180  0.405430  0.260030  1.0  0.0375
  C  C2189  1  0.368870  0.393460  0.230870  1.0  -0.121
  C  C2190  1  0.384080  0.408920  0.181960  1.0  -0.1506
  C  C2191  1  0.403620  0.429010  0.180690  1.0  0.0629
  C  C2192  1  0.401020  0.452100  0.180040  1.0  0.1266
  C  C2193  1  0.410280  0.463300  0.165580  1.0  -0.1688
  C  C2194  1  0.409290  0.486660  0.165630  1.0  -0.0707
  C  C2195  1  0.397740  0.499320  0.179780  1.0  -0.116
  C  C2196  1  0.387750  0.488130  0.193480  1.0  -0.1295
  C  C2197  1  0.389690  0.464800  0.193030  1.0  -0.097
  C  C2198  1  0.397040  0.524400  0.178280  1.0  0.6914
  C  C2199  1  0.436360  0.221430  0.838570  1.0  0.6368
  C  C2200  1  0.463850  0.221370  0.843500  1.0  -0.0934
  C  C2201  1  0.467370  0.198600  0.842930  1.0  -0.0691
  C  C2202  1  0.492290  0.199450  0.847980  1.0  -0.151
  C  C2203  1  0.515430  0.223170  0.853960  1.0  0.0581
  C  C2204  1  0.511170  0.244420  0.853370  1.0  -0.0968
  C  C2205  1  0.486740  0.244540  0.849260  1.0  -0.126
  C  C2206  1  0.542850  0.223250  0.858740  1.0  0.0314
  C  C2207  1  0.554920  0.214770  0.876750  1.0  -0.1656
  C  C2208  1  0.580010  0.214710  0.880820  1.0  0.1127
  C  C2209  1  0.590610  0.222540  0.866230  1.0  -0.0875
  C  C2210  1  0.580000  0.231590  0.847230  1.0  0.187
  C  C2211  1  0.556410  0.231870  0.844220  1.0  -0.1763
  C  C2212  1  0.592430  0.206880  0.900770  1.0  0.0405
  C  C2213  1  0.577850  0.190340  0.908530  1.0  -0.1634
  C  C2214  1  0.590890  0.183850  0.927700  1.0  -0.0887
  C  C2215  1  0.620170  0.194960  0.940570  1.0  -0.0887
  C  C2216  1  0.634170  0.211420  0.933310  1.0  -0.0917
  C  C2217  1  0.620850  0.217260  0.914010  1.0  -0.1448
  C  C2218  1  0.633350  0.188880  0.962310  1.0  0.6959
  C  C2219  1  0.168770  0.035810  0.682060  1.0  0.6717
  C  C2220  1  0.162640  0.057240  0.696880  1.0  -0.139
  C  C2221  1  0.151050  0.069660  0.683250  1.0  -0.0394
  C  C2222  1  0.144900  0.089620  0.696340  1.0  -0.1261
  C  C2223  1  0.150160  0.097570  0.723570  1.0  -0.002
  C  C2224  1  0.162420  0.085980  0.737540  1.0  -0.1758
  C  C2225  1  0.168280  0.065710  0.723710  1.0  -0.0317
  C  C2226  1  0.145400  0.120150  0.739970  1.0  0.0364
  C  C2227  1  0.162590  0.138000  0.769130  1.0  -0.1215
  C  C2228  1  0.226960  0.202120  0.818040  1.0  -0.1523
  C  C2229  1  0.248320  0.222930  0.819310  1.0  0.0634
  C  C2230  1  0.272060  0.220980  0.819960  1.0  0.1273
  C  C2231  1  0.297720  0.244700  0.834420  1.0  -0.1725
  C  C2232  1  0.321030  0.243660  0.834370  1.0  -0.0639
  C  C2233  1  0.319540  0.217960  0.820220  1.0  -0.1141
  C  C2234  1  0.294650  0.194270  0.806520  1.0  -0.1243
  C  C2235  1  0.271770  0.196660  0.806970  1.0  -0.1002
  C  C2236  1  0.346120  0.218760  0.821720  1.0  0.6894
  C  C2237  1  0.563640  0.402210  0.785070  1.0  0.6427
  C  C2238  1  0.536150  0.379650  0.757520  1.0  -0.096
  C  C2239  1  0.532630  0.375560  0.731230  1.0  -0.0691
  C  C2240  1  0.507710  0.355690  0.707160  1.0  -0.151
  C  C2241  1  0.484570  0.338530  0.707740  1.0  0.0538
  C  C2242  1  0.488830  0.342200  0.733250  1.0  -0.0997
  C  C2243  1  0.513260  0.362520  0.757800  1.0  -0.129
  C  C2244  1  0.457150  0.315890  0.680400  1.0  0.0312
  C  C2245  1  0.445080  0.321830  0.659850  1.0  -0.166
  C  C2246  1  0.419990  0.300810  0.634700  1.0  0.114
  C  C2247  1  0.409390  0.275620  0.631930  1.0  -0.0849
  C  C2248  1  0.420000  0.267230  0.651590  1.0  0.1877
  C  C2249  1  0.443590  0.287810  0.675460  1.0  -0.1647
  C  C2250  1  0.407570  0.308340  0.614450  1.0  0.043
  C  C2251  1  0.422150  0.330680  0.612490  1.0  -0.1593
  C  C2252  1  0.409110  0.336810  0.592960  1.0  -0.0805
  C  C2253  1  0.379830  0.320400  0.574790  1.0  -0.0843
  C  C2254  1  0.365830  0.299140  0.577250  1.0  -0.0998
  C  C2255  1  0.379150  0.293160  0.596410  1.0  -0.1525
  C  C2256  1  0.366650  0.328960  0.555530  1.0  0.7005
  C  C2257  1  0.831230  0.513290  0.867040  1.0  0.6671
  C  C2258  1  0.837360  0.534240  0.894600  1.0  -0.1379
  C  C2259  1  0.848950  0.532200  0.918610  1.0  -0.0435
  C  C2260  1  0.855100  0.551440  0.944720  1.0  -0.1295
  C  C2261  1  0.849840  0.573410  0.947410  1.0  -0.0062
  C  C2262  1  0.837580  0.575120  0.923560  1.0  -0.175
  C  C2263  1  0.831720  0.555430  0.897430  1.0  -0.0344
  C  C2264  1  0.854600  0.594570  0.974750  1.0  0.0369
  C  C2265  1  0.837410  0.606540  0.975410  1.0  -0.1209
  C  C2266  1  0.773040  0.591080  0.975160  1.0  -0.1501
  C  C2267  1  0.751680  0.570990  0.974610  1.0  0.0739
  C  C2268  1  0.727940  0.547900  0.948920  1.0  0.1307
  C  C2269  1  0.702280  0.536700  0.946980  1.0  -0.1689
  C  C2270  1  0.678970  0.513340  0.922630  1.0  -0.0681
  C  C2271  1  0.680460  0.500680  0.898420  1.0  -0.1171
  C  C2272  1  0.705350  0.511870  0.899620  1.0  -0.1251
  C  C2273  1  0.728230  0.535200  0.924890  1.0  -0.0965
  C  C2274  1  0.653880  0.475600  0.872640  1.0  0.6936
  C  C2275  1  0.617140  0.778570  0.214930  1.0  0.6384
  C  C2276  1  0.622130  0.778630  0.242480  1.0  -0.0983
  C  C2277  1  0.644330  0.801400  0.268770  1.0  -0.0663
  C  C2278  1  0.648530  0.800550  0.292840  1.0  -0.1488
  C  C2279  1  0.630790  0.776830  0.292260  1.0  0.0561
  C  C2280  1  0.608950  0.755580  0.266750  1.0  -0.0981
  C  C2281  1  0.604720  0.755460  0.242200  1.0  -0.1278
  C  C2282  1  0.635490  0.776750  0.319600  1.0  0.0324
  C  C2283  1  0.661980  0.785230  0.340150  1.0  -0.1612
  C  C2284  1  0.666110  0.785290  0.365300  1.0  0.1132
  C  C2285  1  0.643690  0.777460  0.368070  1.0  -0.0847
  C  C2286  1  0.615640  0.768410  0.348410  1.0  0.1883
  C  C2287  1  0.612350  0.768130  0.324540  1.0  -0.1665
  C  C2288  1  0.693890  0.793120  0.385550  1.0  0.0425
  C  C2289  1  0.718190  0.809660  0.387510  1.0  -0.1594
  C  C2290  1  0.743850  0.816150  0.407040  1.0  -0.0805
  C  C2291  1  0.745610  0.805040  0.425210  1.0  -0.0827
  C  C2292  1  0.721890  0.788580  0.422750  1.0  -0.1005
  C  C2293  1  0.696750  0.782740  0.403590  1.0  -0.1544
  C  C2294  1  0.773430  0.811120  0.444470  1.0  0.7002
  C  C2295  1  0.646250  0.964190  0.132960  1.0  0.6694
  C  C2296  1  0.639640  0.942760  0.105400  1.0  -0.1377
  C  C2297  1  0.613590  0.930340  0.081390  1.0  -0.0369
  C  C2298  1  0.606720  0.910380  0.055280  1.0  -0.1225
  C  C2299  1  0.626000  0.902430  0.052590  1.0  -0.0005
  C  C2300  1  0.651560  0.914020  0.076440  1.0  -0.1777
  C  C2301  1  0.658000  0.934290  0.102570  1.0  -0.0275
  C  C2302  1  0.619820  0.879850  0.025250  1.0  0.0388
  C  C2303  1  0.631130  0.862000  0.024590  1.0  -0.1224
  C  C2304  1  0.615920  0.797880  0.024840  1.0  -0.1565
  C  C2305  1  0.596380  0.777070  0.025390  1.0  0.0647
  C  C2306  1  0.598980  0.779020  0.051080  1.0  0.1317
  C  C2307  1  0.589720  0.755300  0.053020  1.0  -0.1705
  C  C2308  1  0.590710  0.756340  0.077370  1.0  -0.0655
  C  C2309  1  0.602260  0.782040  0.101580  1.0  -0.1158
  C  C2310  1  0.612250  0.805730  0.100380  1.0  -0.1258
  C  C2311  1  0.610310  0.803340  0.075110  1.0  -0.0947
  C  C2312  1  0.602960  0.781240  0.127360  1.0  0.6929
  C  C2313  1  0.161430  0.382860  0.597790  1.0  0.6429
  C  C2314  1  0.156500  0.377870  0.620350  1.0  -0.0946
  C  C2315  1  0.157070  0.355670  0.624440  1.0  -0.0674
  C  C2316  1  0.152020  0.351470  0.644310  1.0  -0.1557
  C  C2317  1  0.146040  0.369210  0.661470  1.0  0.0534
  C  C2318  1  0.146630  0.391050  0.657800  1.0  -0.0993
  C  C2319  1  0.150740  0.395280  0.637480  1.0  -0.1316
  C  C2320  1  0.141260  0.364510  0.684110  1.0  0.0307
  C  C2321  1  0.123250  0.338020  0.678170  1.0  -0.1579
  C  C2322  1  0.119180  0.333890  0.699190  1.0  0.1103
  C  C2323  1  0.133770  0.356310  0.724380  1.0  -0.0849
  C  C2324  1  0.152770  0.384360  0.732770  1.0  0.1859
  C  C2325  1  0.155780  0.387650  0.712190  1.0  -0.1694
  C  C2326  1  0.099230  0.306110  0.691660  1.0  0.0392
  C  C2327  1  0.091470  0.281810  0.669320  1.0  -0.1607
  C  C2328  1  0.072300  0.256150  0.663190  1.0  -0.0909
  C  C2329  1  0.059430  0.254390  0.679600  1.0  -0.0869
  C  C2330  1  0.066690  0.278110  0.700860  1.0  -0.0944
  C  C2331  1  0.085990  0.303250  0.706840  1.0  -0.149
  C  C2332  1  0.037690  0.226570  0.671040  1.0  0.6974
  C  C2333  1  0.317940  0.353750  0.486710  1.0  0.6675
  C  C2334  1  0.303120  0.360360  0.465760  1.0  -0.1373
  C  C2335  1  0.316750  0.386410  0.467800  1.0  -0.0448
  C  C2336  1  0.303660  0.393280  0.448560  1.0  -0.1318
  C  C2337  1  0.276430  0.374000  0.426590  1.0  -0.0062
  C  C2338  1  0.262460  0.348440  0.424880  1.0  -0.1741
  C  C2339  1  0.276290  0.342000  0.444570  1.0  -0.0363
  C  C2340  1  0.260030  0.380180  0.405430  1.0  0.034
  C  C2341  1  0.230870  0.368870  0.393460  1.0  -0.1228
  C  C2342  1  0.181960  0.384080  0.408920  1.0  -0.1529
  C  C2343  1  0.180690  0.403620  0.429010  1.0  0.0654
  C  C2344  1  0.180040  0.401020  0.452100  1.0  0.1278
  C  C2345  1  0.165580  0.410280  0.463300  1.0  -0.168
  C  C2346  1  0.165630  0.409290  0.486660  1.0  -0.0687
  C  C2347  1  0.179780  0.397740  0.499320  1.0  -0.115
  C  C2348  1  0.193480  0.387750  0.488130  1.0  -0.1256
  C  C2349  1  0.193030  0.389690  0.464800  1.0  -0.0954
  C  C2350  1  0.178280  0.397040  0.524400  1.0  0.691
  C  C2351  1  0.838570  0.436360  0.221430  1.0  0.6389
  C  C2352  1  0.843500  0.463850  0.221370  1.0  -0.0959
  C  C2353  1  0.842930  0.467370  0.198600  1.0  -0.0687
  C  C2354  1  0.847980  0.492290  0.199450  1.0  -0.1482
  C  C2355  1  0.853960  0.515430  0.223170  1.0  0.0579
  C  C2356  1  0.853370  0.511170  0.244420  1.0  -0.1025
  C  C2357  1  0.849260  0.486740  0.244540  1.0  -0.1306
  C  C2358  1  0.858740  0.542850  0.223250  1.0  0.0314
  C  C2359  1  0.876750  0.554920  0.214770  1.0  -0.1672
  C  C2360  1  0.880820  0.580010  0.214710  1.0  0.1119
  C  C2361  1  0.866230  0.590610  0.222540  1.0  -0.0884
  C  C2362  1  0.847230  0.580000  0.231590  1.0  0.1894
  C  C2363  1  0.844220  0.556410  0.231870  1.0  -0.171
  C  C2364  1  0.900770  0.592430  0.206880  1.0  0.0387
  C  C2365  1  0.908530  0.577850  0.190340  1.0  -0.1625
  C  C2366  1  0.927700  0.590890  0.183850  1.0  -0.0896
  C  C2367  1  0.940570  0.620170  0.194960  1.0  -0.0881
  C  C2368  1  0.933310  0.634170  0.211420  1.0  -0.0944
  C  C2369  1  0.914010  0.620850  0.217260  1.0  -0.1494
  C  C2370  1  0.962310  0.633350  0.188880  1.0  0.6964
  C  C2371  1  0.682060  0.168770  0.035810  1.0  0.6718
  C  C2372  1  0.696880  0.162640  0.057240  1.0  -0.1395
  C  C2373  1  0.683250  0.151050  0.069660  1.0  -0.0378
  C  C2374  1  0.696340  0.144900  0.089620  1.0  -0.1272
  C  C2375  1  0.723570  0.150160  0.097570  1.0  -0.0036
  C  C2376  1  0.737540  0.162420  0.085980  1.0  -0.1751
  C  C2377  1  0.723710  0.168280  0.065710  1.0  -0.0315
  C  C2378  1  0.739970  0.145400  0.120150  1.0  0.0372
  C  C2379  1  0.769130  0.162590  0.138000  1.0  -0.1226
  C  C2380  1  0.818040  0.226960  0.202120  1.0  -0.1513
  C  C2381  1  0.819310  0.248320  0.222930  1.0  0.065
  C  C2382  1  0.819960  0.272060  0.220980  1.0  0.1279
  C  C2383  1  0.834420  0.297720  0.244700  1.0  -0.1696
  C  C2384  1  0.834370  0.321030  0.243660  1.0  -0.0649
  C  C2385  1  0.820220  0.319540  0.217960  1.0  -0.1156
  C  C2386  1  0.806520  0.294650  0.194270  1.0  -0.1243
  C  C2387  1  0.806970  0.271770  0.196660  1.0  -0.097
  C  C2388  1  0.821720  0.346120  0.218760  1.0  0.6896
  C  C2389  1  0.785070  0.563640  0.402210  1.0  0.6428
  C  C2390  1  0.757520  0.536150  0.379650  1.0  -0.0967
  C  C2391  1  0.731230  0.532630  0.375560  1.0  -0.0674
  C  C2392  1  0.707160  0.507710  0.355690  1.0  -0.1499
  C  C2393  1  0.707740  0.484570  0.338530  1.0  0.0585
  C  C2394  1  0.733250  0.488830  0.342200  1.0  -0.0998
  C  C2395  1  0.757800  0.513260  0.362520  1.0  -0.1278
  C  C2396  1  0.680400  0.457150  0.315890  1.0  0.0339
  C  C2397  1  0.659850  0.445080  0.321830  1.0  -0.1648
  C  C2398  1  0.634700  0.419990  0.300810  1.0  0.1144
  C  C2399  1  0.631930  0.409390  0.275620  1.0  -0.0835
  C  C2400  1  0.651590  0.420000  0.267230  1.0  0.1874
  C  C2401  1  0.675460  0.443590  0.287810  1.0  -0.1692
  C  C2402  1  0.614450  0.407570  0.308340  1.0  0.0441
  C  C2403  1  0.612490  0.422150  0.330680  1.0  -0.1623
  C  C2404  1  0.592960  0.409110  0.336810  1.0  -0.0792
  C  C2405  1  0.574790  0.379830  0.320400  1.0  -0.0847
  C  C2406  1  0.577250  0.365830  0.299140  1.0  -0.1016
  C  C2407  1  0.596410  0.379150  0.293160  1.0  -0.1571
  C  C2408  1  0.555530  0.366650  0.328960  1.0  0.7004
  C  C2409  1  0.867040  0.831230  0.513290  1.0  0.6672
  C  C2410  1  0.894600  0.837360  0.534240  1.0  -0.1378
  C  C2411  1  0.918610  0.848950  0.532200  1.0  -0.0452
  C  C2412  1  0.944720  0.855100  0.551440  1.0  -0.1303
  C  C2413  1  0.947410  0.849840  0.573410  1.0  -0.0059
  C  C2414  1  0.923560  0.837580  0.575120  1.0  -0.1743
  C  C2415  1  0.897430  0.831720  0.555430  1.0  -0.0371
  C  C2416  1  0.974750  0.854600  0.594570  1.0  0.0371
  C  C2417  1  0.975410  0.837410  0.606540  1.0  -0.121
  C  C2418  1  0.975160  0.773040  0.591080  1.0  -0.1507
  C  C2419  1  0.974610  0.751680  0.570990  1.0  0.0742
  C  C2420  1  0.948920  0.727940  0.547900  1.0  0.1323
  C  C2421  1  0.946980  0.702280  0.536700  1.0  -0.1669
  C  C2422  1  0.922630  0.678970  0.513340  1.0  -0.0672
  C  C2423  1  0.898420  0.680460  0.500680  1.0  -0.118
  C  C2424  1  0.899620  0.705350  0.511870  1.0  -0.1218
  C  C2425  1  0.924890  0.728230  0.535200  1.0  -0.0943
  C  C2426  1  0.872640  0.653880  0.475600  1.0  0.6944
  C  C2427  1  0.214930  0.617140  0.778570  1.0  0.6356
  C  C2428  1  0.242480  0.622130  0.778630  1.0  -0.0923
  C  C2429  1  0.268770  0.644330  0.801400  1.0  -0.0679
  C  C2430  1  0.292840  0.648530  0.800550  1.0  -0.1548
  C  C2431  1  0.292260  0.630790  0.776830  1.0  0.0553
  C  C2432  1  0.266750  0.608950  0.755580  1.0  -0.0986
  C  C2433  1  0.242200  0.604720  0.755460  1.0  -0.1338
  C  C2434  1  0.319600  0.635490  0.776750  1.0  0.0301
  C  C2435  1  0.340150  0.661980  0.785230  1.0  -0.1623
  C  C2436  1  0.365300  0.666110  0.785290  1.0  0.1147
  C  C2437  1  0.368070  0.643690  0.777460  1.0  -0.0867
  C  C2438  1  0.348410  0.615640  0.768410  1.0  0.1856
  C  C2439  1  0.324540  0.612350  0.768130  1.0  -0.1728
  C  C2440  1  0.385550  0.693890  0.793120  1.0  0.0439
  C  C2441  1  0.387510  0.718190  0.809660  1.0  -0.1604
  C  C2442  1  0.407040  0.743850  0.816150  1.0  -0.0778
  C  C2443  1  0.425210  0.745610  0.805040  1.0  -0.0823
  C  C2444  1  0.422750  0.721890  0.788580  1.0  -0.1
  C  C2445  1  0.403590  0.696750  0.782740  1.0  -0.1532
  C  C2446  1  0.444470  0.773430  0.811120  1.0  0.7009
  C  C2447  1  0.132960  0.646250  0.964190  1.0  0.6686
  C  C2448  1  0.105400  0.639640  0.942760  1.0  -0.1385
  C  C2449  1  0.081390  0.613590  0.930340  1.0  -0.0425
  C  C2450  1  0.055280  0.606720  0.910380  1.0  -0.1252
  C  C2451  1  0.052590  0.626000  0.902430  1.0  -0.0007
  C  C2452  1  0.076440  0.651560  0.914020  1.0  -0.1791
  C  C2453  1  0.102570  0.658000  0.934290  1.0  -0.029
  C  C2454  1  0.025250  0.619820  0.879850  1.0  0.0398
  C  C2455  1  0.024590  0.631130  0.862000  1.0  -0.1214
  C  C2456  1  0.024840  0.615920  0.797880  1.0  -0.1547
  C  C2457  1  0.025390  0.596380  0.777070  1.0  0.0631
  C  C2458  1  0.051080  0.598980  0.779020  1.0  0.1307
  C  C2459  1  0.053020  0.589720  0.755300  1.0  -0.1689
  C  C2460  1  0.077370  0.590710  0.756340  1.0  -0.0656
  C  C2461  1  0.101580  0.602260  0.782040  1.0  -0.1162
  C  C2462  1  0.100380  0.612250  0.805730  1.0  -0.1272
  C  C2463  1  0.075110  0.610310  0.803340  1.0  -0.095
  C  C2464  1  0.127360  0.602960  0.781240  1.0  0.6928
  C  C2465  1  0.597790  0.161430  0.382860  1.0  0.6377
  C  C2466  1  0.620350  0.156500  0.377870  1.0  -0.0953
  C  C2467  1  0.624440  0.157070  0.355670  1.0  -0.0689
  C  C2468  1  0.644310  0.152020  0.351470  1.0  -0.1511
  C  C2469  1  0.661470  0.146040  0.369210  1.0  0.0588
  C  C2470  1  0.657800  0.146630  0.391050  1.0  -0.1029
  C  C2471  1  0.637480  0.150740  0.395280  1.0  -0.1311
  C  C2472  1  0.684110  0.141260  0.364510  1.0  0.0309
  C  C2473  1  0.678170  0.123250  0.338020  1.0  -0.1611
  C  C2474  1  0.699190  0.119180  0.333890  1.0  0.1115
  C  C2475  1  0.724380  0.133770  0.356310  1.0  -0.0867
  C  C2476  1  0.732770  0.152770  0.384360  1.0  0.1865
  C  C2477  1  0.712190  0.155780  0.387650  1.0  -0.1657
  C  C2478  1  0.691660  0.099230  0.306110  1.0  0.0402
  C  C2479  1  0.669320  0.091470  0.281810  1.0  -0.1616
  C  C2480  1  0.663190  0.072300  0.256150  1.0  -0.0886
  C  C2481  1  0.679600  0.059430  0.254390  1.0  -0.0883
  C  C2482  1  0.700860  0.066690  0.278110  1.0  -0.0933
  C  C2483  1  0.706840  0.085990  0.303250  1.0  -0.1463
  C  C2484  1  0.671040  0.037690  0.226570  1.0  0.6971
  C  C2485  1  0.486710  0.317940  0.353750  1.0  0.6677
  C  C2486  1  0.465760  0.303120  0.360360  1.0  -0.1377
  C  C2487  1  0.467800  0.316750  0.386410  1.0  -0.0458
  C  C2488  1  0.448560  0.303660  0.393280  1.0  -0.1333
  C  C2489  1  0.426590  0.276430  0.374000  1.0  -0.0048
  C  C2490  1  0.424880  0.262460  0.348440  1.0  -0.1757
  C  C2491  1  0.444570  0.276290  0.342000  1.0  -0.0368
  C  C2492  1  0.405430  0.260030  0.380180  1.0  0.0377
  C  C2493  1  0.393460  0.230870  0.368870  1.0  -0.1216
  C  C2494  1  0.408920  0.181960  0.384080  1.0  -0.1526
  C  C2495  1  0.429010  0.180690  0.403620  1.0  0.0631
  C  C2496  1  0.452100  0.180040  0.401020  1.0  0.1274
  C  C2497  1  0.463300  0.165580  0.410280  1.0  -0.1697
  C  C2498  1  0.486660  0.165630  0.409290  1.0  -0.0704
  C  C2499  1  0.499320  0.179780  0.397740  1.0  -0.1143
  C  C2500  1  0.488130  0.193480  0.387750  1.0  -0.1276
  C  C2501  1  0.464800  0.193030  0.389690  1.0  -0.0998
  C  C2502  1  0.524400  0.178280  0.397040  1.0  0.6901
  C  C2503  1  0.221430  0.838570  0.436360  1.0  0.6389
  C  C2504  1  0.221370  0.843500  0.463850  1.0  -0.0973
  C  C2505  1  0.198600  0.842930  0.467370  1.0  -0.0691
  C  C2506  1  0.199450  0.847980  0.492290  1.0  -0.1496
  C  C2507  1  0.223170  0.853960  0.515430  1.0  0.0553
  C  C2508  1  0.244420  0.853370  0.511170  1.0  -0.097
  C  C2509  1  0.244540  0.849260  0.486740  1.0  -0.1259
  C  C2510  1  0.223250  0.858740  0.542850  1.0  0.0321
  C  C2511  1  0.214770  0.876750  0.554920  1.0  -0.1659
  C  C2512  1  0.214710  0.880820  0.580010  1.0  0.1141
  C  C2513  1  0.222540  0.866230  0.590610  1.0  -0.0873
  C  C2514  1  0.231590  0.847230  0.580000  1.0  0.1866
  C  C2515  1  0.231870  0.844220  0.556410  1.0  -0.1688
  C  C2516  1  0.206880  0.900770  0.592430  1.0  0.0395
  C  C2517  1  0.190340  0.908530  0.577850  1.0  -0.161
  C  C2518  1  0.183850  0.927700  0.590890  1.0  -0.0893
  C  C2519  1  0.194960  0.940570  0.620170  1.0  -0.0874
  C  C2520  1  0.211420  0.933310  0.634170  1.0  -0.0956
  C  C2521  1  0.217260  0.914010  0.620850  1.0  -0.1459
  C  C2522  1  0.188880  0.962310  0.633350  1.0  0.696
  C  C2523  1  0.035810  0.682060  0.168770  1.0  0.6721
  C  C2524  1  0.057240  0.696880  0.162640  1.0  -0.1384
  C  C2525  1  0.069660  0.683250  0.151050  1.0  -0.042
  C  C2526  1  0.089620  0.696340  0.144900  1.0  -0.1251
  C  C2527  1  0.097570  0.723570  0.150160  1.0  -0.0029
  C  C2528  1  0.085980  0.737540  0.162420  1.0  -0.1746
  C  C2529  1  0.065710  0.723710  0.168280  1.0  -0.0321
  C  C2530  1  0.120150  0.739970  0.145400  1.0  0.0352
  C  C2531  1  0.138000  0.769130  0.162590  1.0  -0.1216
  C  C2532  1  0.202120  0.818040  0.226960  1.0  -0.1522
  C  C2533  1  0.222930  0.819310  0.248320  1.0  0.0655
  C  C2534  1  0.220980  0.819960  0.272060  1.0  0.1277
  C  C2535  1  0.244700  0.834420  0.297720  1.0  -0.1676
  C  C2536  1  0.243660  0.834370  0.321030  1.0  -0.0637
  C  C2537  1  0.217960  0.820220  0.319540  1.0  -0.1146
  C  C2538  1  0.194270  0.806520  0.294650  1.0  -0.124
  C  C2539  1  0.196660  0.806970  0.271770  1.0  -0.0968
  C  C2540  1  0.218760  0.821720  0.346120  1.0  0.6892
  C  C2541  1  0.402210  0.785070  0.563640  1.0  0.6395
  C  C2542  1  0.379650  0.757520  0.536150  1.0  -0.0957
  C  C2543  1  0.375560  0.731230  0.532630  1.0  -0.063
  C  C2544  1  0.355690  0.707160  0.507710  1.0  -0.1498
  C  C2545  1  0.338530  0.707740  0.484570  1.0  0.0541
  C  C2546  1  0.342200  0.733250  0.488830  1.0  -0.1004
  C  C2547  1  0.362520  0.757800  0.513260  1.0  -0.1316
  C  C2548  1  0.315890  0.680400  0.457150  1.0  0.0331
  C  C2549  1  0.321830  0.659850  0.445080  1.0  -0.1649
  C  C2550  1  0.300810  0.634700  0.419990  1.0  0.1152
  C  C2551  1  0.275620  0.631930  0.409390  1.0  -0.0862
  C  C2552  1  0.267230  0.651590  0.420000  1.0  0.1886
  C  C2553  1  0.287810  0.675460  0.443590  1.0  -0.171
  C  C2554  1  0.308340  0.614450  0.407570  1.0  0.0423
  C  C2555  1  0.330680  0.612490  0.422150  1.0  -0.1564
  C  C2556  1  0.336810  0.592960  0.409110  1.0  -0.0768
  C  C2557  1  0.320400  0.574790  0.379830  1.0  -0.083
  C  C2558  1  0.299140  0.577250  0.365830  1.0  -0.1008
  C  C2559  1  0.293160  0.596410  0.379150  1.0  -0.1518
  C  C2560  1  0.328960  0.555530  0.366650  1.0  0.7007
  C  C2561  1  0.513290  0.867040  0.831230  1.0  0.6676
  C  C2562  1  0.534240  0.894600  0.837360  1.0  -0.1367
  C  C2563  1  0.532200  0.918610  0.848950  1.0  -0.0428
  C  C2564  1  0.551440  0.944720  0.855100  1.0  -0.1297
  C  C2565  1  0.573410  0.947410  0.849840  1.0  -0.0031
  C  C2566  1  0.575120  0.923560  0.837580  1.0  -0.1749
  C  C2567  1  0.555430  0.897430  0.831720  1.0  -0.0352
  C  C2568  1  0.594570  0.974750  0.854600  1.0  0.0395
  C  C2569  1  0.606540  0.975410  0.837410  1.0  -0.1209
  C  C2570  1  0.591080  0.975160  0.773040  1.0  -0.153
  C  C2571  1  0.570990  0.974610  0.751680  1.0  0.0745
  C  C2572  1  0.547900  0.948920  0.727940  1.0  0.1324
  C  C2573  1  0.536700  0.946980  0.702280  1.0  -0.1677
  C  C2574  1  0.513340  0.922630  0.678970  1.0  -0.0678
  C  C2575  1  0.500680  0.898420  0.680460  1.0  -0.1178
  C  C2576  1  0.511870  0.899620  0.705350  1.0  -0.1258
  C  C2577  1  0.535200  0.924890  0.728230  1.0  -0.0938
  C  C2578  1  0.475600  0.872640  0.653880  1.0  0.6945
  C  C2579  1  0.778570  0.214930  0.617140  1.0  0.6396
  C  C2580  1  0.778630  0.242480  0.622130  1.0  -0.0954
  C  C2581  1  0.801400  0.268770  0.644330  1.0  -0.0682
  C  C2582  1  0.800550  0.292840  0.648530  1.0  -0.1504
  C  C2583  1  0.776830  0.292260  0.630790  1.0  0.0549
  C  C2584  1  0.755580  0.266750  0.608950  1.0  -0.0964
  C  C2585  1  0.755460  0.242200  0.604720  1.0  -0.1333
  C  C2586  1  0.776750  0.319600  0.635490  1.0  0.0323
  C  C2587  1  0.785230  0.340150  0.661980  1.0  -0.1611
  C  C2588  1  0.785290  0.365300  0.666110  1.0  0.1132
  C  C2589  1  0.777460  0.368070  0.643690  1.0  -0.0871
  C  C2590  1  0.768410  0.348410  0.615640  1.0  0.1871
  C  C2591  1  0.768130  0.324540  0.612350  1.0  -0.1711
  C  C2592  1  0.793120  0.385550  0.693890  1.0  0.0451
  C  C2593  1  0.809660  0.387510  0.718190  1.0  -0.1577
  C  C2594  1  0.816150  0.407040  0.743850  1.0  -0.078
  C  C2595  1  0.805040  0.425210  0.745610  1.0  -0.0837
  C  C2596  1  0.788580  0.422750  0.721890  1.0  -0.0998
  C  C2597  1  0.782740  0.403590  0.696750  1.0  -0.1515
  C  C2598  1  0.811120  0.444470  0.773430  1.0  0.7012
  C  C2599  1  0.964190  0.132960  0.646250  1.0  0.6688
  C  C2600  1  0.942760  0.105400  0.639640  1.0  -0.1383
  C  C2601  1  0.930340  0.081390  0.613590  1.0  -0.0402
  C  C2602  1  0.910380  0.055280  0.606720  1.0  -0.1231
  C  C2603  1  0.902430  0.052590  0.626000  1.0  -0.0012
  C  C2604  1  0.914020  0.076440  0.651560  1.0  -0.1783
  C  C2605  1  0.934290  0.102570  0.658000  1.0  -0.0309
  C  C2606  1  0.879850  0.025250  0.619820  1.0  0.0365
  C  C2607  1  0.862000  0.024590  0.631130  1.0  -0.1218
  C  C2608  1  0.797880  0.024840  0.615920  1.0  -0.1541
  C  C2609  1  0.777070  0.025390  0.596380  1.0  0.0638
  C  C2610  1  0.779020  0.051080  0.598980  1.0  0.1318
  C  C2611  1  0.755300  0.053020  0.589720  1.0  -0.1683
  C  C2612  1  0.756340  0.077370  0.590710  1.0  -0.0623
  C  C2613  1  0.782040  0.101580  0.602260  1.0  -0.1171
  C  C2614  1  0.805730  0.100380  0.612250  1.0  -0.1258
  C  C2615  1  0.803340  0.075110  0.610310  1.0  -0.0955
  C  C2616  1  0.781240  0.127360  0.602960  1.0  0.6949
  C  C2617  1  0.778570  0.563640  0.161430  1.0  0.6375
  C  C2618  1  0.778630  0.536150  0.156500  1.0  -0.0951
  C  C2619  1  0.801400  0.532630  0.157070  1.0  -0.0678
  C  C2620  1  0.800550  0.507710  0.152020  1.0  -0.152
  C  C2621  1  0.776830  0.484570  0.146040  1.0  0.0569
  C  C2622  1  0.755580  0.488830  0.146630  1.0  -0.0976
  C  C2623  1  0.755460  0.513260  0.150740  1.0  -0.1273
  C  C2624  1  0.776750  0.457150  0.141260  1.0  0.0311
  C  C2625  1  0.785230  0.445080  0.123250  1.0  -0.1634
  C  C2626  1  0.785290  0.419990  0.119180  1.0  0.1131
  C  C2627  1  0.777460  0.409390  0.133770  1.0  -0.0866
  C  C2628  1  0.768410  0.420000  0.152770  1.0  0.188
  C  C2629  1  0.768130  0.443590  0.155780  1.0  -0.1743
  C  C2630  1  0.793120  0.407570  0.099230  1.0  0.0391
  C  C2631  1  0.809660  0.422150  0.091470  1.0  -0.1651
  C  C2632  1  0.816150  0.409110  0.072300  1.0  -0.091
  C  C2633  1  0.805040  0.379830  0.059430  1.0  -0.0895
  C  C2634  1  0.788580  0.365830  0.066690  1.0  -0.0952
  C  C2635  1  0.782740  0.379150  0.085990  1.0  -0.1513
  C  C2636  1  0.811120  0.366650  0.037690  1.0  0.6962
  C  C2637  1  0.964190  0.831230  0.317940  1.0  0.6712
  C  C2638  1  0.942760  0.837360  0.303120  1.0  -0.1389
  C  C2639  1  0.930340  0.848950  0.316750  1.0  -0.0414
  C  C2640  1  0.910380  0.855100  0.303660  1.0  -0.1247
  C  C2641  1  0.902430  0.849840  0.276430  1.0  -0.0029
  C  C2642  1  0.914020  0.837580  0.262460  1.0  -0.1738
  C  C2643  1  0.934290  0.831720  0.276290  1.0  -0.0314
  C  C2644  1  0.879850  0.854600  0.260030  1.0  0.035
  C  C2645  1  0.862000  0.837410  0.230870  1.0  -0.1223
  C  C2646  1  0.797880  0.773040  0.181960  1.0  -0.1522
  C  C2647  1  0.777070  0.751680  0.180690  1.0  0.0644
  C  C2648  1  0.779020  0.727940  0.180040  1.0  0.1273
  C  C2649  1  0.755300  0.702280  0.165580  1.0  -0.169
  C  C2650  1  0.756340  0.678970  0.165630  1.0  -0.0629
  C  C2651  1  0.782040  0.680460  0.179780  1.0  -0.1156
  C  C2652  1  0.805730  0.705350  0.193480  1.0  -0.1221
  C  C2653  1  0.803340  0.728230  0.193030  1.0  -0.0962
  C  C2654  1  0.781240  0.653880  0.178280  1.0  0.6895
  C  C2655  1  0.402210  0.617140  0.838570  1.0  0.6376
  C  C2656  1  0.379650  0.622130  0.843500  1.0  -0.0933
  C  C2657  1  0.375560  0.644330  0.842930  1.0  -0.0677
  C  C2658  1  0.355690  0.648530  0.847980  1.0  -0.1545
  C  C2659  1  0.338530  0.630790  0.853960  1.0  0.056
  C  C2660  1  0.342200  0.608950  0.853370  1.0  -0.1007
  C  C2661  1  0.362520  0.604720  0.849260  1.0  -0.1356
  C  C2662  1  0.315890  0.635490  0.858740  1.0  0.0319
  C  C2663  1  0.321830  0.661980  0.876750  1.0  -0.1617
  C  C2664  1  0.300810  0.666110  0.880820  1.0  0.1121
  C  C2665  1  0.275620  0.643690  0.866230  1.0  -0.0861
  C  C2666  1  0.267230  0.615640  0.847230  1.0  0.186
  C  C2667  1  0.287810  0.612350  0.844220  1.0  -0.1696
  C  C2668  1  0.308340  0.693890  0.900770  1.0  0.0412
  C  C2669  1  0.330680  0.718190  0.908530  1.0  -0.1604
  C  C2670  1  0.336810  0.743850  0.927700  1.0  -0.0887
  C  C2671  1  0.320400  0.745610  0.940570  1.0  -0.0866
  C  C2672  1  0.299140  0.721890  0.933310  1.0  -0.0937
  C  C2673  1  0.293160  0.696750  0.914010  1.0  -0.1478
  C  C2674  1  0.328960  0.773430  0.962310  1.0  0.6969
  C  C2675  1  0.513290  0.646250  0.682060  1.0  0.6669
  C  C2676  1  0.534240  0.639640  0.696880  1.0  -0.1379
  C  C2677  1  0.532200  0.613590  0.683250  1.0  -0.0476
  C  C2678  1  0.551440  0.606720  0.696340  1.0  -0.1331
  C  C2679  1  0.573410  0.626000  0.723570  1.0  -0.0048
  C  C2680  1  0.575120  0.651560  0.737540  1.0  -0.1748
  C  C2681  1  0.555430  0.658000  0.723710  1.0  -0.0353
  C  C2682  1  0.594570  0.619820  0.739970  1.0  0.0376
  C  C2683  1  0.606540  0.631130  0.769130  1.0  -0.1198
  C  C2684  1  0.591080  0.615920  0.818040  1.0  -0.1517
  C  C2685  1  0.570990  0.596380  0.819310  1.0  0.063
  C  C2686  1  0.547900  0.598980  0.819960  1.0  0.1267
  C  C2687  1  0.536700  0.589720  0.834420  1.0  -0.1661
  C  C2688  1  0.513340  0.590710  0.834370  1.0  -0.0719
  C  C2689  1  0.500680  0.602260  0.820220  1.0  -0.1155
  C  C2690  1  0.511870  0.612250  0.806520  1.0  -0.1275
  C  C2691  1  0.535200  0.610310  0.806970  1.0  -0.0959
  C  C2692  1  0.475600  0.602960  0.821720  1.0  0.6912
  C  C2693  1  0.221430  0.382860  0.785070  1.0  0.6403
  C  C2694  1  0.221370  0.377870  0.757520  1.0  -0.0992
  C  C2695  1  0.198600  0.355670  0.731230  1.0  -0.0647
  C  C2696  1  0.199450  0.351470  0.707160  1.0  -0.1535
  C  C2697  1  0.223170  0.369210  0.707740  1.0  0.0566
  C  C2698  1  0.244420  0.391050  0.733250  1.0  -0.0992
  C  C2699  1  0.244540  0.395280  0.757800  1.0  -0.132
  C  C2700  1  0.223250  0.364510  0.680400  1.0  0.0315
  C  C2701  1  0.214770  0.338020  0.659850  1.0  -0.1573
  C  C2702  1  0.214710  0.333890  0.634700  1.0  0.1129
  C  C2703  1  0.222540  0.356310  0.631930  1.0  -0.0857
  C  C2704  1  0.231590  0.384360  0.651590  1.0  0.1863
  C  C2705  1  0.231870  0.387650  0.675460  1.0  -0.1694
  C  C2706  1  0.206880  0.306110  0.614450  1.0  0.0421
  C  C2707  1  0.190340  0.281810  0.612490  1.0  -0.158
  C  C2708  1  0.183850  0.256150  0.592960  1.0  -0.0784
  C  C2709  1  0.194960  0.254390  0.574790  1.0  -0.0826
  C  C2710  1  0.211420  0.278110  0.577250  1.0  -0.0998
  C  C2711  1  0.217260  0.303250  0.596410  1.0  -0.153
  C  C2712  1  0.188880  0.226570  0.555530  1.0  0.7009
  C  C2713  1  0.035810  0.353750  0.867040  1.0  0.6692
  C  C2714  1  0.057240  0.360360  0.894600  1.0  -0.1383
  C  C2715  1  0.069660  0.386410  0.918610  1.0  -0.042
  C  C2716  1  0.089620  0.393280  0.944720  1.0  -0.1254
  C  C2717  1  0.097570  0.374000  0.947410  1.0  -0.0019
  C  C2718  1  0.085980  0.348440  0.923560  1.0  -0.1783
  C  C2719  1  0.065710  0.342000  0.897430  1.0  -0.0316
  C  C2720  1  0.120150  0.380180  0.974750  1.0  0.0368
  C  C2721  1  0.138000  0.368870  0.975410  1.0  -0.1238
  C  C2722  1  0.202120  0.384080  0.975160  1.0  -0.1548
  C  C2723  1  0.222930  0.403620  0.974610  1.0  0.064
  C  C2724  1  0.220980  0.401020  0.948920  1.0  0.1317
  C  C2725  1  0.244700  0.410280  0.946980  1.0  -0.1688
  C  C2726  1  0.243660  0.409290  0.922630  1.0  -0.0638
  C  C2727  1  0.217960  0.397740  0.898420  1.0  -0.1156
  C  C2728  1  0.194270  0.387750  0.899620  1.0  -0.1256
  C  C2729  1  0.196660  0.389690  0.924890  1.0  -0.0948
  C  C2730  1  0.218760  0.397040  0.872640  1.0  0.6939
  C  C2731  1  0.597790  0.436360  0.214930  1.0  0.6432
  C  C2732  1  0.620350  0.463850  0.242480  1.0  -0.0955
  C  C2733  1  0.624440  0.467370  0.268770  1.0  -0.0692
  C  C2734  1  0.644310  0.492290  0.292840  1.0  -0.1492
  C  C2735  1  0.661470  0.515430  0.292260  1.0  0.0562
  C  C2736  1  0.657800  0.511170  0.266750  1.0  -0.1001
  C  C2737  1  0.637480  0.486740  0.242200  1.0  -0.131
  C  C2738  1  0.684110  0.542850  0.319600  1.0  0.0295
  C  C2739  1  0.678170  0.554920  0.340150  1.0  -0.1667
  C  C2740  1  0.699190  0.580010  0.365300  1.0  0.1121
  C  C2741  1  0.724380  0.590610  0.368070  1.0  -0.0861
  C  C2742  1  0.732770  0.580000  0.348410  1.0  0.187
  C  C2743  1  0.712190  0.556410  0.324540  1.0  -0.1667
  C  C2744  1  0.691660  0.592430  0.385550  1.0  0.0428
  C  C2745  1  0.669320  0.577850  0.387510  1.0  -0.1609
  C  C2746  1  0.663190  0.590890  0.407040  1.0  -0.078
  C  C2747  1  0.679600  0.620170  0.425210  1.0  -0.0833
  C  C2748  1  0.700860  0.634170  0.422750  1.0  -0.1012
  C  C2749  1  0.706840  0.620850  0.403590  1.0  -0.1559
  C  C2750  1  0.671040  0.633350  0.444470  1.0  0.7015
  C  C2751  1  0.486710  0.168770  0.132960  1.0  0.6673
  C  C2752  1  0.465760  0.162640  0.105400  1.0  -0.138
  C  C2753  1  0.467800  0.151050  0.081390  1.0  -0.0405
  C  C2754  1  0.448560  0.144900  0.055280  1.0  -0.1309
  C  C2755  1  0.426590  0.150160  0.052590  1.0  -0.0064
  C  C2756  1  0.424880  0.162420  0.076440  1.0  -0.177
  C  C2757  1  0.444570  0.168280  0.102570  1.0  -0.0364
  C  C2758  1  0.405430  0.145400  0.025250  1.0  0.0388
  C  C2759  1  0.393460  0.162590  0.024590  1.0  -0.1206
  C  C2760  1  0.408920  0.226960  0.024840  1.0  -0.1477
  C  C2761  1  0.429010  0.248320  0.025390  1.0  0.075
  C  C2762  1  0.452100  0.272060  0.051080  1.0  0.1316
  C  C2763  1  0.463300  0.297720  0.053020  1.0  -0.17
  C  C2764  1  0.486660  0.321030  0.077370  1.0  -0.0696
  C  C2765  1  0.499320  0.319540  0.101580  1.0  -0.1177
  C  C2766  1  0.488130  0.294650  0.100380  1.0  -0.1254
  C  C2767  1  0.464800  0.271770  0.075110  1.0  -0.0943
  C  C2768  1  0.524400  0.346120  0.127360  1.0  0.6949
  C  C2769  1  0.436360  0.214930  0.597790  1.0  0.6451
  C  C2770  1  0.463850  0.242480  0.620350  1.0  -0.0961
  C  C2771  1  0.467370  0.268770  0.624440  1.0  -0.0693
  C  C2772  1  0.492290  0.292840  0.644310  1.0  -0.1496
  C  C2773  1  0.515430  0.292260  0.661470  1.0  0.0566
  C  C2774  1  0.511170  0.266750  0.657800  1.0  -0.0975
  C  C2775  1  0.486740  0.242200  0.637480  1.0  -0.1325
  C  C2776  1  0.542850  0.319600  0.684110  1.0  0.0333
  C  C2777  1  0.554920  0.340150  0.678170  1.0  -0.1638
  C  C2778  1  0.580010  0.365300  0.699190  1.0  0.1107
  C  C2779  1  0.590610  0.368070  0.724380  1.0  -0.0863
  C  C2780  1  0.580000  0.348410  0.732770  1.0  0.1882
  C  C2781  1  0.556410  0.324540  0.712190  1.0  -0.1701
  C  C2782  1  0.592430  0.385550  0.691660  1.0  0.0439
  C  C2783  1  0.577850  0.387510  0.669320  1.0  -0.1604
  C  C2784  1  0.590890  0.407040  0.663190  1.0  -0.0777
  C  C2785  1  0.620170  0.425210  0.679600  1.0  -0.0848
  C  C2786  1  0.634170  0.422750  0.700860  1.0  -0.1023
  C  C2787  1  0.620850  0.403590  0.706840  1.0  -0.1506
  C  C2788  1  0.633350  0.444470  0.671040  1.0  0.7013
  C  C2789  1  0.168770  0.132960  0.486710  1.0  0.6675
  C  C2790  1  0.162640  0.105400  0.465760  1.0  -0.1371
  C  C2791  1  0.151050  0.081390  0.467800  1.0  -0.0455
  C  C2792  1  0.144900  0.055280  0.448560  1.0  -0.1299
  C  C2793  1  0.150160  0.052590  0.426590  1.0  -0.0055
  C  C2794  1  0.162420  0.076440  0.424880  1.0  -0.1729
  C  C2795  1  0.168280  0.102570  0.444570  1.0  -0.0364
  C  C2796  1  0.145400  0.025250  0.405430  1.0  0.0366
  C  C2797  1  0.162590  0.024590  0.393460  1.0  -0.1191
  C  C2798  1  0.226960  0.024840  0.408920  1.0  -0.1527
  C  C2799  1  0.248320  0.025390  0.429010  1.0  0.0745
  C  C2800  1  0.272060  0.051080  0.452100  1.0  0.1309
  C  C2801  1  0.297720  0.053020  0.463300  1.0  -0.1647
  C  C2802  1  0.321030  0.077370  0.486660  1.0  -0.0642
  C  C2803  1  0.319540  0.101580  0.499320  1.0  -0.1178
  C  C2804  1  0.294650  0.100380  0.488130  1.0  -0.124
  C  C2805  1  0.271770  0.075110  0.464800  1.0  -0.0945
  C  C2806  1  0.346120  0.127360  0.524400  1.0  0.6951
  C  C2807  1  0.382860  0.785070  0.221430  1.0  0.6349
  C  C2808  1  0.377870  0.757520  0.221370  1.0  -0.095
  C  C2809  1  0.355670  0.731230  0.198600  1.0  -0.0657
  C  C2810  1  0.351470  0.707160  0.199450  1.0  -0.1493
  C  C2811  1  0.369210  0.707740  0.223170  1.0  0.0546
  C  C2812  1  0.391050  0.733250  0.244420  1.0  -0.1012
  C  C2813  1  0.395280  0.757800  0.244540  1.0  -0.1319
  C  C2814  1  0.364510  0.680400  0.223250  1.0  0.0311
  C  C2815  1  0.338020  0.659850  0.214770  1.0  -0.1599
  C  C2816  1  0.333890  0.634700  0.214710  1.0  0.1156
  C  C2817  1  0.356310  0.631930  0.222540  1.0  -0.0867
  C  C2818  1  0.384360  0.651590  0.231590  1.0  0.1861
  C  C2819  1  0.387650  0.675460  0.231870  1.0  -0.1688
  C  C2820  1  0.306110  0.614450  0.206880  1.0  0.0428
  C  C2821  1  0.281810  0.612490  0.190340  1.0  -0.1582
  C  C2822  1  0.256150  0.592960  0.183850  1.0  -0.0766
  C  C2823  1  0.254390  0.574790  0.194960  1.0  -0.0834
  C  C2824  1  0.278110  0.577250  0.211420  1.0  -0.1011
  C  C2825  1  0.303250  0.596410  0.217260  1.0  -0.1519
  C  C2826  1  0.226570  0.555530  0.188880  1.0  0.7006
  C  C2827  1  0.353750  0.867040  0.035810  1.0  0.6689
  C  C2828  1  0.360360  0.894600  0.057240  1.0  -0.1376
  C  C2829  1  0.386410  0.918610  0.069660  1.0  -0.037
  C  C2830  1  0.393280  0.944720  0.089620  1.0  -0.1212
  C  C2831  1  0.374000  0.947410  0.097570  1.0  0.0005
  C  C2832  1  0.348440  0.923560  0.085980  1.0  -0.1778
  C  C2833  1  0.342000  0.897430  0.065710  1.0  -0.0302
  C  C2834  1  0.380180  0.974750  0.120150  1.0  0.0388
  C  C2835  1  0.368870  0.975410  0.138000  1.0  -0.1212
  C  C2836  1  0.384080  0.975160  0.202120  1.0  -0.1527
  C  C2837  1  0.403620  0.974610  0.222930  1.0  0.0645
  C  C2838  1  0.401020  0.948920  0.220980  1.0  0.1314
  C  C2839  1  0.410280  0.946980  0.244700  1.0  -0.1685
  C  C2840  1  0.409290  0.922630  0.243660  1.0  -0.0652
  C  C2841  1  0.397740  0.898420  0.217960  1.0  -0.1168
  C  C2842  1  0.387750  0.899620  0.194270  1.0  -0.1261
  C  C2843  1  0.389690  0.924890  0.196660  1.0  -0.0957
  C  C2844  1  0.397040  0.872640  0.218760  1.0  0.6947
  C  C2845  1  0.617140  0.838570  0.402210  1.0  0.6404
  C  C2846  1  0.622130  0.843500  0.379650  1.0  -0.0981
  C  C2847  1  0.644330  0.842930  0.375560  1.0  -0.0671
  C  C2848  1  0.648530  0.847980  0.355690  1.0  -0.1514
  C  C2849  1  0.630790  0.853960  0.338530  1.0  0.056
  C  C2850  1  0.608950  0.853370  0.342200  1.0  -0.0967
  C  C2851  1  0.604720  0.849260  0.362520  1.0  -0.1264
  C  C2852  1  0.635490  0.858740  0.315890  1.0  0.031
  C  C2853  1  0.661980  0.876750  0.321830  1.0  -0.1612
  C  C2854  1  0.666110  0.880820  0.300810  1.0  0.1105
  C  C2855  1  0.643690  0.866230  0.275620  1.0  -0.0873
  C  C2856  1  0.615640  0.847230  0.267230  1.0  0.1859
  C  C2857  1  0.612350  0.844220  0.287810  1.0  -0.1669
  C  C2858  1  0.693890  0.900770  0.308340  1.0  0.0401
  C  C2859  1  0.718190  0.908530  0.330680  1.0  -0.1594
  C  C2860  1  0.743850  0.927700  0.336810  1.0  -0.0888
  C  C2861  1  0.745610  0.940570  0.320400  1.0  -0.0875
  C  C2862  1  0.721890  0.933310  0.299140  1.0  -0.0949
  C  C2863  1  0.696750  0.914010  0.293160  1.0  -0.1478
  C  C2864  1  0.773430  0.962310  0.328960  1.0  0.697
  C  C2865  1  0.646250  0.682060  0.513290  1.0  0.6675
  C  C2866  1  0.639640  0.696880  0.534240  1.0  -0.1375
  C  C2867  1  0.613590  0.683250  0.532200  1.0  -0.0466
  C  C2868  1  0.606720  0.696340  0.551440  1.0  -0.1311
  C  C2869  1  0.626000  0.723570  0.573410  1.0  -0.0063
  C  C2870  1  0.651560  0.737540  0.575120  1.0  -0.1754
  C  C2871  1  0.658000  0.723710  0.555430  1.0  -0.0354
  C  C2872  1  0.619820  0.739970  0.594570  1.0  0.0342
  C  C2873  1  0.631130  0.769130  0.606540  1.0  -0.124
  C  C2874  1  0.615920  0.818040  0.591080  1.0  -0.1533
  C  C2875  1  0.596380  0.819310  0.570990  1.0  0.0652
  C  C2876  1  0.598980  0.819960  0.547900  1.0  0.1281
  C  C2877  1  0.589720  0.834420  0.536700  1.0  -0.1695
  C  C2878  1  0.590710  0.834370  0.513340  1.0  -0.0683
  C  C2879  1  0.602260  0.820220  0.500680  1.0  -0.1142
  C  C2880  1  0.612250  0.806520  0.511870  1.0  -0.1265
  C  C2881  1  0.610310  0.806970  0.535200  1.0  -0.096
  C  C2882  1  0.602960  0.821720  0.475600  1.0  0.6915
  C  C2883  1  0.563640  0.161430  0.778570  1.0  0.6351
  C  C2884  1  0.536150  0.156500  0.778630  1.0  -0.0945
  C  C2885  1  0.532630  0.157070  0.801400  1.0  -0.0697
  C  C2886  1  0.507710  0.152020  0.800550  1.0  -0.1512
  C  C2887  1  0.484570  0.146040  0.776830  1.0  0.058
  C  C2888  1  0.488830  0.146630  0.755580  1.0  -0.1012
  C  C2889  1  0.513260  0.150740  0.755460  1.0  -0.1309
  C  C2890  1  0.457150  0.141260  0.776750  1.0  0.0337
  C  C2891  1  0.445080  0.123250  0.785230  1.0  -0.1662
  C  C2892  1  0.419990  0.119180  0.785290  1.0  0.1141
  C  C2893  1  0.409390  0.133770  0.777460  1.0  -0.0871
  C  C2894  1  0.420000  0.152770  0.768410  1.0  0.1871
  C  C2895  1  0.443590  0.155780  0.768130  1.0  -0.1731
  C  C2896  1  0.407570  0.099230  0.793120  1.0  0.0385
  C  C2897  1  0.422150  0.091470  0.809660  1.0  -0.16
  C  C2898  1  0.409110  0.072300  0.816150  1.0  -0.087
  C  C2899  1  0.379830  0.059430  0.805040  1.0  -0.0873
  C  C2900  1  0.365830  0.066690  0.788580  1.0  -0.0922
  C  C2901  1  0.379150  0.085990  0.782740  1.0  -0.1458
  C  C2902  1  0.366650  0.037690  0.811120  1.0  0.6966
  C  C2903  1  0.831230  0.317940  0.964190  1.0  0.6716
  C  C2904  1  0.837360  0.303120  0.942760  1.0  -0.139
  C  C2905  1  0.848950  0.316750  0.930340  1.0  -0.0425
  C  C2906  1  0.855100  0.303660  0.910380  1.0  -0.1284
  C  C2907  1  0.849840  0.276430  0.902430  1.0  -0.0023
  C  C2908  1  0.837580  0.262460  0.914020  1.0  -0.176
  C  C2909  1  0.831720  0.276290  0.934290  1.0  -0.0337
  C  C2910  1  0.854600  0.260030  0.879850  1.0  0.0383
  C  C2911  1  0.837410  0.230870  0.862000  1.0  -0.1226
  C  C2912  1  0.773040  0.181960  0.797880  1.0  -0.1492
  C  C2913  1  0.751680  0.180690  0.777070  1.0  0.0627
  C  C2914  1  0.727940  0.180040  0.779020  1.0  0.1265
  C  C2915  1  0.702280  0.165580  0.755300  1.0  -0.1701
  C  C2916  1  0.678970  0.165630  0.756340  1.0  -0.0661
  C  C2917  1  0.680460  0.179780  0.782040  1.0  -0.1151
  C  C2918  1  0.705350  0.193480  0.805730  1.0  -0.127
  C  C2919  1  0.728230  0.193030  0.803340  1.0  -0.0987
  C  C2920  1  0.653880  0.178280  0.781240  1.0  0.6887
  C  C2921  1  0.785070  0.221430  0.382860  1.0  0.6381
  C  C2922  1  0.757520  0.221370  0.377870  1.0  -0.0943
  C  C2923  1  0.731230  0.198600  0.355670  1.0  -0.0682
  C  C2924  1  0.707160  0.199450  0.351470  1.0  -0.1518
  C  C2925  1  0.707740  0.223170  0.369210  1.0  0.0583
  C  C2926  1  0.733250  0.244420  0.391050  1.0  -0.0976
  C  C2927  1  0.757800  0.244540  0.395280  1.0  -0.1257
  C  C2928  1  0.680400  0.223250  0.364510  1.0  0.0326
  C  C2929  1  0.659850  0.214770  0.338020  1.0  -0.1614
  C  C2930  1  0.634700  0.214710  0.333890  1.0  0.1114
  C  C2931  1  0.631930  0.222540  0.356310  1.0  -0.0861
  C  C2932  1  0.651590  0.231590  0.384360  1.0  0.1875
  C  C2933  1  0.675460  0.231870  0.387650  1.0  -0.1717
  C  C2934  1  0.614450  0.206880  0.306110  1.0  0.0422
  C  C2935  1  0.612490  0.190340  0.281810  1.0  -0.1611
  C  C2936  1  0.592960  0.183850  0.256150  1.0  -0.0779
  C  C2937  1  0.574790  0.194960  0.254390  1.0  -0.0857
  C  C2938  1  0.577250  0.211420  0.278110  1.0  -0.0988
  C  C2939  1  0.596410  0.217260  0.303250  1.0  -0.1516
  C  C2940  1  0.555530  0.188880  0.226570  1.0  0.7006
  C  C2941  1  0.867040  0.035810  0.353750  1.0  0.6691
  C  C2942  1  0.894600  0.057240  0.360360  1.0  -0.1381
  C  C2943  1  0.918610  0.069660  0.386410  1.0  -0.0409
  C  C2944  1  0.944720  0.089620  0.393280  1.0  -0.1238
  C  C2945  1  0.947410  0.097570  0.374000  1.0  -0.0007
  C  C2946  1  0.923560  0.085980  0.348440  1.0  -0.178
  C  C2947  1  0.897430  0.065710  0.342000  1.0  -0.0298
  C  C2948  1  0.974750  0.120150  0.380180  1.0  0.0382
  C  C2949  1  0.975410  0.138000  0.368870  1.0  -0.1225
  C  C2950  1  0.975160  0.202120  0.384080  1.0  -0.151
  C  C2951  1  0.974610  0.222930  0.403620  1.0  0.063
  C  C2952  1  0.948920  0.220980  0.401020  1.0  0.1306
  C  C2953  1  0.946980  0.244700  0.410280  1.0  -0.1719
  C  C2954  1  0.922630  0.243660  0.409290  1.0  -0.0652
  C  C2955  1  0.898420  0.217960  0.397740  1.0  -0.1164
  C  C2956  1  0.899620  0.194270  0.387750  1.0  -0.1257
  C  C2957  1  0.924890  0.196660  0.389690  1.0  -0.0981
  C  C2958  1  0.872640  0.218760  0.397040  1.0  0.6939
  C  C2959  1  0.214930  0.597790  0.436360  1.0  0.6392
  C  C2960  1  0.242480  0.620350  0.463850  1.0  -0.0941
  C  C2961  1  0.268770  0.624440  0.467370  1.0  -0.0659
  C  C2962  1  0.292840  0.644310  0.492290  1.0  -0.1517
  C  C2963  1  0.292260  0.661470  0.515430  1.0  0.0546
  C  C2964  1  0.266750  0.657800  0.511170  1.0  -0.0994
  C  C2965  1  0.242200  0.637480  0.486740  1.0  -0.1297
  C  C2966  1  0.319600  0.684110  0.542850  1.0  0.0306
  C  C2967  1  0.340150  0.678170  0.554920  1.0  -0.164
  C  C2968  1  0.365300  0.699190  0.580010  1.0  0.1147
  C  C2969  1  0.368070  0.724380  0.590610  1.0  -0.0845
  C  C2970  1  0.348410  0.732770  0.580000  1.0  0.1856
  C  C2971  1  0.324540  0.712190  0.556410  1.0  -0.1665
  C  C2972  1  0.385550  0.691660  0.592430  1.0  0.0415
  C  C2973  1  0.387510  0.669320  0.577850  1.0  -0.1641
  C  C2974  1  0.407040  0.663190  0.590890  1.0  -0.079
  C  C2975  1  0.425210  0.679600  0.620170  1.0  -0.0824
  C  C2976  1  0.422750  0.700860  0.634170  1.0  -0.1029
  C  C2977  1  0.403590  0.706840  0.620850  1.0  -0.1567
  C  C2978  1  0.444470  0.671040  0.633350  1.0  0.6997
  C  C2979  1  0.132960  0.486710  0.168770  1.0  0.667
  C  C2980  1  0.105400  0.465760  0.162640  1.0  -0.1374
  C  C2981  1  0.081390  0.467800  0.151050  1.0  -0.045
  C  C2982  1  0.055280  0.448560  0.144900  1.0  -0.1301
  C  C2983  1  0.052590  0.426590  0.150160  1.0  -0.0047
  C  C2984  1  0.076440  0.424880  0.162420  1.0  -0.174
  C  C2985  1  0.102570  0.444570  0.168280  1.0  -0.0322
  C  C2986  1  0.025250  0.405430  0.145400  1.0  0.0379
  C  C2987  1  0.024590  0.393460  0.162590  1.0  -0.1219
  C  C2988  1  0.024840  0.408920  0.226960  1.0  -0.1525
  C  C2989  1  0.025390  0.429010  0.248320  1.0  0.0737
  C  C2990  1  0.051080  0.452100  0.272060  1.0  0.1305
  C  C2991  1  0.053020  0.463300  0.297720  1.0  -0.1679
  C  C2992  1  0.077370  0.486660  0.321030  1.0  -0.0694
  C  C2993  1  0.101580  0.499320  0.319540  1.0  -0.1179
  C  C2994  1  0.100380  0.488130  0.294650  1.0  -0.126
  C  C2995  1  0.075110  0.464800  0.271770  1.0  -0.0951
  C  C2996  1  0.127360  0.524400  0.346120  1.0  0.6937
  C  C2997  1  0.161430  0.778570  0.563640  1.0  0.6386
  C  C2998  1  0.156500  0.778630  0.536150  1.0  -0.0992
  C  C2999  1  0.157070  0.801400  0.532630  1.0  -0.0668
  C  C3000  1  0.152020  0.800550  0.507710  1.0  -0.15
  C  C3001  1  0.146040  0.776830  0.484570  1.0  0.0572
  C  C3002  1  0.146630  0.755580  0.488830  1.0  -0.0992
  C  C3003  1  0.150740  0.755460  0.513260  1.0  -0.1285
  C  C3004  1  0.141260  0.776750  0.457150  1.0  0.0308
  C  C3005  1  0.123250  0.785230  0.445080  1.0  -0.1651
  C  C3006  1  0.119180  0.785290  0.419990  1.0  0.1127
  C  C3007  1  0.133770  0.777460  0.409390  1.0  -0.0882
  C  C3008  1  0.152770  0.768410  0.420000  1.0  0.1868
  C  C3009  1  0.155780  0.768130  0.443590  1.0  -0.171
  C  C3010  1  0.099230  0.793120  0.407570  1.0  0.0391
  C  C3011  1  0.091470  0.809660  0.422150  1.0  -0.1621
  C  C3012  1  0.072300  0.816150  0.409110  1.0  -0.0907
  C  C3013  1  0.059430  0.805040  0.379830  1.0  -0.0874
  C  C3014  1  0.066690  0.788580  0.365830  1.0  -0.0935
  C  C3015  1  0.085990  0.782740  0.379150  1.0  -0.1486
  C  C3016  1  0.037690  0.811120  0.366650  1.0  0.6958
  C  C3017  1  0.317940  0.964190  0.831230  1.0  0.6721
  C  C3018  1  0.303120  0.942760  0.837360  1.0  -0.1385
  C  C3019  1  0.316750  0.930340  0.848950  1.0  -0.0346
  C  C3020  1  0.303660  0.910380  0.855100  1.0  -0.124
  C  C3021  1  0.276430  0.902430  0.849840  1.0  -0.0011
  C  C3022  1  0.262460  0.914020  0.837580  1.0  -0.1758
  C  C3023  1  0.276290  0.934290  0.831720  1.0  -0.031
  C  C3024  1  0.260030  0.879850  0.854600  1.0  0.0373
  C  C3025  1  0.230870  0.862000  0.837410  1.0  -0.1205
  C  C3026  1  0.181960  0.797880  0.773040  1.0  -0.1522
  C  C3027  1  0.180690  0.777070  0.751680  1.0  0.0647
  C  C3028  1  0.180040  0.779020  0.727940  1.0  0.1274
  C  C3029  1  0.165580  0.755300  0.702280  1.0  -0.1703
  C  C3030  1  0.165630  0.756340  0.678970  1.0  -0.0645
  C  C3031  1  0.179780  0.782040  0.680460  1.0  -0.1141
  C  C3032  1  0.193480  0.805730  0.705350  1.0  -0.1239
  C  C3033  1  0.193030  0.803340  0.728230  1.0  -0.0958
  C  C3034  1  0.178280  0.781240  0.653880  1.0  0.6884
  C  C3035  1  0.838570  0.402210  0.617140  1.0  0.642
  C  C3036  1  0.843500  0.379650  0.622130  1.0  -0.0961
  C  C3037  1  0.842930  0.375560  0.644330  1.0  -0.0683
  C  C3038  1  0.847980  0.355690  0.648530  1.0  -0.1514
  C  C3039  1  0.853960  0.338530  0.630790  1.0  0.0559
  C  C3040  1  0.853370  0.342200  0.608950  1.0  -0.1004
  C  C3041  1  0.849260  0.362520  0.604720  1.0  -0.1299
  C  C3042  1  0.858740  0.315890  0.635490  1.0  0.0325
  C  C3043  1  0.876750  0.321830  0.661980  1.0  -0.1636
  C  C3044  1  0.880820  0.300810  0.666110  1.0  0.1102
  C  C3045  1  0.866230  0.275620  0.643690  1.0  -0.0853
  C  C3046  1  0.847230  0.267230  0.615640  1.0  0.1874
  C  C3047  1  0.844220  0.287810  0.612350  1.0  -0.1683
  C  C3048  1  0.900770  0.308340  0.693890  1.0  0.0391
  C  C3049  1  0.908530  0.330680  0.718190  1.0  -0.1641
  C  C3050  1  0.927700  0.336810  0.743850  1.0  -0.0916
  C  C3051  1  0.940570  0.320400  0.745610  1.0  -0.0878
  C  C3052  1  0.933310  0.299140  0.721890  1.0  -0.0925
  C  C3053  1  0.914010  0.293160  0.696750  1.0  -0.1477
  C  C3054  1  0.962310  0.328960  0.773430  1.0  0.6971
  C  C3055  1  0.682060  0.513290  0.646250  1.0  0.6675
  C  C3056  1  0.696880  0.534240  0.639640  1.0  -0.1369
  C  C3057  1  0.683250  0.532200  0.613590  1.0  -0.0458
  C  C3058  1  0.696340  0.551440  0.606720  1.0  -0.1304
  C  C3059  1  0.723570  0.573410  0.626000  1.0  -0.0063
  C  C3060  1  0.737540  0.575120  0.651560  1.0  -0.1761
  C  C3061  1  0.723710  0.555430  0.658000  1.0  -0.0353
  C  C3062  1  0.739970  0.594570  0.619820  1.0  0.0375
  C  C3063  1  0.769130  0.606540  0.631130  1.0  -0.1191
  C  C3064  1  0.818040  0.591080  0.615920  1.0  -0.1492
  C  C3065  1  0.819310  0.570990  0.596380  1.0  0.0631
  C  C3066  1  0.819960  0.547900  0.598980  1.0  0.1268
  C  C3067  1  0.834420  0.536700  0.589720  1.0  -0.1686
  C  C3068  1  0.834370  0.513340  0.590710  1.0  -0.071
  C  C3069  1  0.820220  0.500680  0.602260  1.0  -0.1144
  C  C3070  1  0.806520  0.511870  0.612250  1.0  -0.1278
  C  C3071  1  0.806970  0.535200  0.610310  1.0  -0.0989
  C  C3072  1  0.821720  0.475600  0.602960  1.0  0.6906
  C  C3073  1  0.591720  0.239450  0.831170  1.0  -0.2624
  C  C3074  1  0.408280  0.760550  0.168830  1.0  -0.2621
  C  C3075  1  0.591720  0.760550  0.352270  1.0  -0.2595
  C  C3076  1  0.408280  0.239450  0.647730  1.0  -0.2599
  C  C3077  1  0.831170  0.591720  0.239450  1.0  -0.258
  C  C3078  1  0.168830  0.408280  0.760550  1.0  -0.2588
  C  C3079  1  0.352270  0.591720  0.760550  1.0  -0.2623
  C  C3080  1  0.647730  0.408280  0.239450  1.0  -0.2621
  C  C3081  1  0.239450  0.831170  0.591720  1.0  -0.2629
  C  C3082  1  0.760550  0.168830  0.408280  1.0  -0.2627
  C  C3083  1  0.760550  0.352270  0.591720  1.0  -0.2622
  C  C3084  1  0.239450  0.647730  0.408280  1.0  -0.2627
  C  C3085  1  0.239450  0.591720  0.831170  1.0  -0.2615
  C  C3086  1  0.760550  0.408280  0.168830  1.0  -0.2622
  C  C3087  1  0.760550  0.591720  0.352270  1.0  -0.259
  C  C3088  1  0.239450  0.408280  0.647730  1.0  -0.2584
  C  C3089  1  0.408280  0.647730  0.239450  1.0  -0.2625
  C  C3090  1  0.591720  0.352270  0.760550  1.0  -0.2625
  C  C3091  1  0.408280  0.168830  0.760550  1.0  -0.2636
  C  C3092  1  0.591720  0.831170  0.239450  1.0  -0.2625
  C  C3093  1  0.352270  0.760550  0.591720  1.0  -0.2619
  C  C3094  1  0.647730  0.239450  0.408280  1.0  -0.2629
  C  C3095  1  0.831170  0.239450  0.591720  1.0  -0.2606
  C  C3096  1  0.168830  0.760550  0.408280  1.0  -0.2589
  C  C3097  1  0.601320  0.601320  0.725860  1.0  -0.1132
  C  C3098  1  0.624490  0.624490  0.783840  1.0  0.1107
  C  C3099  1  0.634370  0.634370  0.814260  1.0  -0.2581
  C  C3100  1  0.614270  0.614270  0.818300  1.0  0.0862
  C  C3101  1  0.574040  0.574040  0.819180  1.0  -0.1611
  C  C3102  1  0.875460  0.875460  0.274140  1.0  -0.1032
  C  C3103  1  0.840650  0.840650  0.216160  1.0  0.1068
  C  C3104  1  0.820110  0.820110  0.185740  1.0  -0.2586
  C  C3105  1  0.795970  0.795970  0.181700  1.0  0.0862
  C  C3106  1  0.754860  0.754860  0.180820  1.0  -0.1598
  C  C3107  1  0.124540  0.398680  0.000000  1.0  -0.111
  C  C3108  1  0.159350  0.375510  0.000000  1.0  0.1117
  C  C3109  1  0.179890  0.365630  0.000000  1.0  -0.2573
  C  C3110  1  0.204030  0.385730  0.000000  1.0  0.0886
  C  C3111  1  0.245140  0.425960  0.000000  1.0  -0.1606
  C  C3112  1  0.398680  0.124540  0.000000  1.0  -0.1102
  C  C3113  1  0.375510  0.159350  0.000000  1.0  0.1126
  C  C3114  1  0.365630  0.179890  0.000000  1.0  -0.2586
  C  C3115  1  0.385730  0.204030  0.000000  1.0  0.0895
  C  C3116  1  0.425960  0.245140  0.000000  1.0  -0.161
  C  C3117  1  0.725860  0.601320  0.601320  1.0  -0.1123
  C  C3118  1  0.783840  0.624490  0.624490  1.0  0.1098
  C  C3119  1  0.814260  0.634370  0.634370  1.0  -0.2605
  C  C3120  1  0.818300  0.614270  0.614270  1.0  0.0873
  C  C3121  1  0.819180  0.574040  0.574040  1.0  -0.1609
  C  C3122  1  0.274140  0.875460  0.875460  1.0  -0.1022
  C  C3123  1  0.216160  0.840650  0.840650  1.0  0.1105
  C  C3124  1  0.185740  0.820110  0.820110  1.0  -0.2588
  C  C3125  1  0.181700  0.795970  0.795970  1.0  0.0892
  C  C3126  1  0.180820  0.754860  0.754860  1.0  -0.1611
  C  C3127  1  0.000000  0.124540  0.398680  1.0  -0.1103
  C  C3128  1  0.000000  0.159350  0.375510  1.0  0.109
  C  C3129  1  0.000000  0.179890  0.365630  1.0  -0.2579
  C  C3130  1  0.000000  0.204030  0.385730  1.0  0.0884
  C  C3131  1  0.000000  0.245140  0.425960  1.0  -0.1589
  C  C3132  1  0.000000  0.398680  0.124540  1.0  -0.112
  C  C3133  1  0.000000  0.375510  0.159350  1.0  0.1115
  C  C3134  1  0.000000  0.365630  0.179890  1.0  -0.2556
  C  C3135  1  0.000000  0.385730  0.204030  1.0  0.0871
  C  C3136  1  0.000000  0.425960  0.245140  1.0  -0.1599
  C  C3137  1  0.601320  0.725860  0.601320  1.0  -0.11
  C  C3138  1  0.624490  0.783840  0.624490  1.0  0.1114
  C  C3139  1  0.634370  0.814260  0.634370  1.0  -0.2583
  C  C3140  1  0.614270  0.818300  0.614270  1.0  0.0868
  C  C3141  1  0.574040  0.819180  0.574040  1.0  -0.1595
  C  C3142  1  0.875460  0.274140  0.875460  1.0  -0.1013
  C  C3143  1  0.840650  0.216160  0.840650  1.0  0.1108
  C  C3144  1  0.820110  0.185740  0.820110  1.0  -0.2569
  C  C3145  1  0.795970  0.181700  0.795970  1.0  0.0867
  C  C3146  1  0.754860  0.180820  0.754860  1.0  -0.1593
  C  C3147  1  0.398680  0.000000  0.124540  1.0  -0.1108
  C  C3148  1  0.375510  0.000000  0.159350  1.0  0.1143
  C  C3149  1  0.365630  0.000000  0.179890  1.0  -0.2588
  C  C3150  1  0.385730  0.000000  0.204030  1.0  0.0886
  C  C3151  1  0.425960  0.000000  0.245140  1.0  -0.16
  C  C3152  1  0.124540  0.000000  0.398680  1.0  -0.1112
  C  C3153  1  0.159350  0.000000  0.375510  1.0  0.1092
  C  C3154  1  0.179890  0.000000  0.365630  1.0  -0.2586
  C  C3155  1  0.204030  0.000000  0.385730  1.0  0.087
  C  C3156  1  0.245140  0.000000  0.425960  1.0  -0.1574
  C  C3157  1  0.124540  0.124540  0.725860  1.0  -0.1045
  C  C3158  1  0.159350  0.159350  0.783840  1.0  0.1101
  C  C3159  1  0.179890  0.179890  0.814260  1.0  -0.2601
  C  C3160  1  0.204030  0.204030  0.818300  1.0  0.0886
  C  C3161  1  0.245140  0.245140  0.819180  1.0  -0.1596
  C  C3162  1  0.398680  0.398680  0.274140  1.0  -0.1108
  C  C3163  1  0.375510  0.375510  0.216160  1.0  0.1096
  C  C3164  1  0.365630  0.365630  0.185740  1.0  -0.2542
  C  C3165  1  0.385730  0.385730  0.181700  1.0  0.0863
  C  C3166  1  0.425960  0.425960  0.180820  1.0  -0.1609
  C  C3167  1  0.875460  0.601320  0.000000  1.0  -0.1082
  C  C3168  1  0.840650  0.624490  0.000000  1.0  0.1117
  C  C3169  1  0.820110  0.634370  0.000000  1.0  -0.2577
  C  C3170  1  0.795970  0.614270  0.000000  1.0  0.0883
  C  C3171  1  0.754860  0.574040  0.000000  1.0  -0.1586
  C  C3172  1  0.601320  0.875460  0.000000  1.0  -0.1084
  C  C3173  1  0.624490  0.840650  0.000000  1.0  0.1123
  C  C3174  1  0.634370  0.820110  0.000000  1.0  -0.2595
  C  C3175  1  0.614270  0.795970  0.000000  1.0  0.0891
  C  C3176  1  0.574040  0.754860  0.000000  1.0  -0.1587
  C  C3177  1  0.875460  0.000000  0.601320  1.0  -0.1077
  C  C3178  1  0.840650  0.000000  0.624490  1.0  0.1127
  C  C3179  1  0.820110  0.000000  0.634370  1.0  -0.2612
  C  C3180  1  0.795970  0.000000  0.614270  1.0  0.0879
  C  C3181  1  0.754860  0.000000  0.574040  1.0  -0.1576
  C  C3182  1  0.601320  0.000000  0.875460  1.0  -0.1081
  C  C3183  1  0.624490  0.000000  0.840650  1.0  0.1132
  C  C3184  1  0.634370  0.000000  0.820110  1.0  -0.2605
  C  C3185  1  0.614270  0.000000  0.795970  1.0  0.0908
  C  C3186  1  0.574040  0.000000  0.754860  1.0  -0.1581
  C  C3187  1  0.398680  0.274140  0.398680  1.0  -0.1086
  C  C3188  1  0.375510  0.216160  0.375510  1.0  0.109
  C  C3189  1  0.365630  0.185740  0.365630  1.0  -0.256
  C  C3190  1  0.385730  0.181700  0.385730  1.0  0.0852
  C  C3191  1  0.425960  0.180820  0.425960  1.0  -0.1592
  C  C3192  1  0.124540  0.725860  0.124540  1.0  -0.1031
  C  C3193  1  0.159350  0.783840  0.159350  1.0  0.1098
  C  C3194  1  0.179890  0.814260  0.179890  1.0  -0.2564
  C  C3195  1  0.204030  0.818300  0.204030  1.0  0.0886
  C  C3196  1  0.245140  0.819180  0.245140  1.0  -0.1594
  C  C3197  1  0.000000  0.875460  0.601320  1.0  -0.1083
  C  C3198  1  0.000000  0.840650  0.624490  1.0  0.1118
  C  C3199  1  0.000000  0.820110  0.634370  1.0  -0.2602
  C  C3200  1  0.000000  0.795970  0.614270  1.0  0.0881
  C  C3201  1  0.000000  0.754860  0.574040  1.0  -0.1585
  C  C3202  1  0.000000  0.601320  0.875460  1.0  -0.1075
  C  C3203  1  0.000000  0.624490  0.840650  1.0  0.1118
  C  C3204  1  0.000000  0.634370  0.820110  1.0  -0.2559
  C  C3205  1  0.000000  0.614270  0.795970  1.0  0.0895
  C  C3206  1  0.000000  0.574040  0.754860  1.0  -0.1593
  C  C3207  1  0.725860  0.124540  0.124540  1.0  -0.1044
  C  C3208  1  0.783840  0.159350  0.159350  1.0  0.111
  C  C3209  1  0.814260  0.179890  0.179890  1.0  -0.2593
  C  C3210  1  0.818300  0.204030  0.204030  1.0  0.0902
  C  C3211  1  0.819180  0.245140  0.245140  1.0  -0.1601
  C  C3212  1  0.274140  0.398680  0.398680  1.0  -0.1106
  C  C3213  1  0.216160  0.375510  0.375510  1.0  0.109
  C  C3214  1  0.185740  0.365630  0.365630  1.0  -0.256
  C  C3215  1  0.181700  0.385730  0.385730  1.0  0.0853
  C  C3216  1  0.180820  0.425960  0.425960  1.0  -0.16
  O  O3217  1  0.627170  0.409530  0.824100  1.0  -0.5924
  O  O3218  1  0.602270  0.408980  0.846670  1.0  -0.5406
  O  O3219  1  0.794750  0.351940  0.970890  1.0  -0.5842
  O  O3220  1  0.774690  0.312310  0.971000  1.0  -0.5859
  O  O3221  1  0.628280  0.495110  0.656850  1.0  -0.5604
  O  O3222  1  0.668750  0.514870  0.697280  1.0  -0.5716
  O  O3223  1  0.616060  0.467420  0.811620  1.0  -0.5678
  O  O3224  1  0.591870  0.466500  0.834490  1.0  -0.5802
  O  O3225  1  0.585430  0.803070  0.175900  1.0  -0.588
  O  O3226  1  0.562310  0.755600  0.153330  1.0  -0.548
  O  O3227  1  0.381050  0.823860  0.029110  1.0  -0.5838
  O  O3228  1  0.341310  0.803690  0.029000  1.0  -0.5754
  O  O3229  1  0.838260  0.971430  0.343150  1.0  -0.5554
  O  O3230  1  0.817590  0.971470  0.302720  1.0  -0.5618
  O  O3231  1  0.655800  0.804440  0.188380  1.0  -0.5689
  O  O3232  1  0.632010  0.757380  0.165510  1.0  -0.5793
  O  O3233  1  0.414570  0.590470  0.217640  1.0  -0.5861
  O  O3234  1  0.437690  0.591020  0.193290  1.0  -0.5433
  O  O3235  1  0.618950  0.648060  0.442810  1.0  -0.5882
  O  O3236  1  0.658690  0.687690  0.462380  1.0  -0.5793
  O  O3237  1  0.161740  0.504890  0.133170  1.0  -0.5598
  O  O3238  1  0.182410  0.485130  0.153880  1.0  -0.5652
  O  O3239  1  0.344200  0.532580  0.148640  1.0  -0.5682
  O  O3240  1  0.367990  0.533500  0.125370  1.0  -0.5787
  O  O3241  1  0.372830  0.196930  0.782360  1.0  -0.5918
  O  O3242  1  0.397730  0.244400  0.806710  1.0  -0.5426
  O  O3243  1  0.205250  0.176140  0.557190  1.0  -0.5879
  O  O3244  1  0.225310  0.196310  0.537620  1.0  -0.5795
  O  O3245  1  0.371720  0.028570  0.866830  1.0  -0.5568
  O  O3246  1  0.331250  0.028530  0.846120  1.0  -0.5681
  O  O3247  1  0.383940  0.195560  0.851360  1.0  -0.5659
  O  O3248  1  0.408130  0.242620  0.874630  1.0  -0.5797
  O  O3249  1  0.824100  0.627170  0.409530  1.0  -0.59
  O  O3250  1  0.846670  0.602270  0.408980  1.0  -0.5409
  O  O3251  1  0.970890  0.794750  0.351940  1.0  -0.5862
  O  O3252  1  0.971000  0.774690  0.312310  1.0  -0.5844
  O  O3253  1  0.656850  0.628280  0.495110  1.0  -0.5607
  O  O3254  1  0.697280  0.668750  0.514870  1.0  -0.5741
  O  O3255  1  0.811620  0.616060  0.467420  1.0  -0.5687
  O  O3256  1  0.834490  0.591870  0.466500  1.0  -0.5796
  O  O3257  1  0.175900  0.585430  0.803070  1.0  -0.587
  O  O3258  1  0.153330  0.562310  0.755600  1.0  -0.5451
  O  O3259  1  0.029110  0.381050  0.823860  1.0  -0.5853
  O  O3260  1  0.029000  0.341310  0.803690  1.0  -0.5766
  O  O3261  1  0.343150  0.838260  0.971430  1.0  -0.5563
  O  O3262  1  0.302720  0.817590  0.971470  1.0  -0.5618
  O  O3263  1  0.188380  0.655800  0.804440  1.0  -0.569
  O  O3264  1  0.165510  0.632010  0.757380  1.0  -0.5794
  O  O3265  1  0.217640  0.414570  0.590470  1.0  -0.5864
  O  O3266  1  0.193290  0.437690  0.591020  1.0  -0.5439
  O  O3267  1  0.442810  0.618950  0.648060  1.0  -0.5866
  O  O3268  1  0.462380  0.658690  0.687690  1.0  -0.58
  O  O3269  1  0.133170  0.161740  0.504890  1.0  -0.5608
  O  O3270  1  0.153880  0.182410  0.485130  1.0  -0.5654
  O  O3271  1  0.148640  0.344200  0.532580  1.0  -0.5698
  O  O3272  1  0.125370  0.367990  0.533500  1.0  -0.5768
  O  O3273  1  0.782360  0.372830  0.196930  1.0  -0.5944
  O  O3274  1  0.806710  0.397730  0.244400  1.0  -0.5401
  O  O3275  1  0.557190  0.205250  0.176140  1.0  -0.5879
  O  O3276  1  0.537620  0.225310  0.196310  1.0  -0.5788
  O  O3277  1  0.866830  0.371720  0.028570  1.0  -0.5577
  O  O3278  1  0.846120  0.331250  0.028530  1.0  -0.5705
  O  O3279  1  0.851360  0.383940  0.195560  1.0  -0.5675
  O  O3280  1  0.874630  0.408130  0.242620  1.0  -0.5818
  O  O3281  1  0.409530  0.824100  0.627170  1.0  -0.5914
  O  O3282  1  0.408980  0.846670  0.602270  1.0  -0.5435
  O  O3283  1  0.351940  0.970890  0.794750  1.0  -0.5836
  O  O3284  1  0.312310  0.971000  0.774690  1.0  -0.584
  O  O3285  1  0.495110  0.656850  0.628280  1.0  -0.5601
  O  O3286  1  0.514870  0.697280  0.668750  1.0  -0.5723
  O  O3287  1  0.467420  0.811620  0.616060  1.0  -0.5691
  O  O3288  1  0.466500  0.834490  0.591870  1.0  -0.5806
  O  O3289  1  0.803070  0.175900  0.585430  1.0  -0.5852
  O  O3290  1  0.755600  0.153330  0.562310  1.0  -0.5444
  O  O3291  1  0.823860  0.029110  0.381050  1.0  -0.5847
  O  O3292  1  0.803690  0.029000  0.341310  1.0  -0.576
  O  O3293  1  0.971430  0.343150  0.838260  1.0  -0.557
  O  O3294  1  0.971470  0.302720  0.817590  1.0  -0.5627
  O  O3295  1  0.804440  0.188380  0.655800  1.0  -0.569
  O  O3296  1  0.757380  0.165510  0.632010  1.0  -0.5758
  O  O3297  1  0.590470  0.217640  0.414570  1.0  -0.5884
  O  O3298  1  0.591020  0.193290  0.437690  1.0  -0.5426
  O  O3299  1  0.648060  0.442810  0.618950  1.0  -0.5883
  O  O3300  1  0.687690  0.462380  0.658690  1.0  -0.5808
  O  O3301  1  0.504890  0.133170  0.161740  1.0  -0.5606
  O  O3302  1  0.485130  0.153880  0.182410  1.0  -0.5645
  O  O3303  1  0.532580  0.148640  0.344200  1.0  -0.5687
  O  O3304  1  0.533500  0.125370  0.367990  1.0  -0.5791
  O  O3305  1  0.196930  0.782360  0.372830  1.0  -0.5936
  O  O3306  1  0.244400  0.806710  0.397730  1.0  -0.5404
  O  O3307  1  0.176140  0.557190  0.205250  1.0  -0.5885
  O  O3308  1  0.196310  0.537620  0.225310  1.0  -0.5789
  O  O3309  1  0.028570  0.866830  0.371720  1.0  -0.5585
  O  O3310  1  0.028530  0.846120  0.331250  1.0  -0.5702
  O  O3311  1  0.195560  0.851360  0.383940  1.0  -0.5677
  O  O3312  1  0.242620  0.874630  0.408130  1.0  -0.5813
  O  O3313  1  0.196930  0.414570  0.824100  1.0  -0.5882
  O  O3314  1  0.244400  0.437690  0.846670  1.0  -0.5432
  O  O3315  1  0.176140  0.618950  0.970890  1.0  -0.585
  O  O3316  1  0.196310  0.658690  0.971000  1.0  -0.5756
  O  O3317  1  0.028570  0.161740  0.656850  1.0  -0.5566
  O  O3318  1  0.028530  0.182410  0.697280  1.0  -0.5603
  O  O3319  1  0.195560  0.344200  0.811620  1.0  -0.5677
  O  O3320  1  0.242620  0.367990  0.834490  1.0  -0.5744
  O  O3321  1  0.590470  0.372830  0.175900  1.0  -0.5943
  O  O3322  1  0.591020  0.397730  0.153330  1.0  -0.5401
  O  O3323  1  0.648060  0.205250  0.029110  1.0  -0.5838
  O  O3324  1  0.687690  0.225310  0.029000  1.0  -0.5832
  O  O3325  1  0.504890  0.371720  0.343150  1.0  -0.5595
  O  O3326  1  0.485130  0.331250  0.302720  1.0  -0.573
  O  O3327  1  0.532580  0.383940  0.188380  1.0  -0.5687
  O  O3328  1  0.533500  0.408130  0.165510  1.0  -0.581
  O  O3329  1  0.803070  0.627170  0.217640  1.0  -0.5904
  O  O3330  1  0.755600  0.602270  0.193290  1.0  -0.5422
  O  O3331  1  0.823860  0.794750  0.442810  1.0  -0.5895
  O  O3332  1  0.803690  0.774690  0.462380  1.0  -0.5783
  O  O3333  1  0.971430  0.628280  0.133170  1.0  -0.5585
  O  O3334  1  0.971470  0.668750  0.153880  1.0  -0.5709
  O  O3335  1  0.804440  0.616060  0.148640  1.0  -0.5684
  O  O3336  1  0.757380  0.591870  0.125370  1.0  -0.5801
  O  O3337  1  0.409530  0.585430  0.782360  1.0  -0.5866
  O  O3338  1  0.408980  0.562310  0.806710  1.0  -0.5438
  O  O3339  1  0.351940  0.381050  0.557190  1.0  -0.5887
  O  O3340  1  0.312310  0.341310  0.537620  1.0  -0.5803
  O  O3341  1  0.495110  0.838260  0.866830  1.0  -0.5598
  O  O3342  1  0.514870  0.817590  0.846120  1.0  -0.5655
  O  O3343  1  0.467420  0.655800  0.851360  1.0  -0.5687
  O  O3344  1  0.466500  0.632010  0.874630  1.0  -0.5788
  O  O3345  1  0.585430  0.782360  0.409530  1.0  -0.586
  O  O3346  1  0.562310  0.806710  0.408980  1.0  -0.5423
  O  O3347  1  0.381050  0.557190  0.351940  1.0  -0.5882
  O  O3348  1  0.341310  0.537620  0.312310  1.0  -0.5795
  O  O3349  1  0.838260  0.866830  0.495110  1.0  -0.5607
  O  O3350  1  0.817590  0.846120  0.514870  1.0  -0.5649
  O  O3351  1  0.655800  0.851360  0.467420  1.0  -0.5692
  O  O3352  1  0.632010  0.874630  0.466500  1.0  -0.5772
  O  O3353  1  0.627170  0.217640  0.803070  1.0  -0.5956
  O  O3354  1  0.602270  0.193290  0.755600  1.0  -0.54
  O  O3355  1  0.794750  0.442810  0.823860  1.0  -0.5882
  O  O3356  1  0.774690  0.462380  0.803690  1.0  -0.5791
  O  O3357  1  0.628280  0.133170  0.971430  1.0  -0.5581
  O  O3358  1  0.668750  0.153880  0.971470  1.0  -0.5679
  O  O3359  1  0.616060  0.148640  0.804440  1.0  -0.5687
  O  O3360  1  0.591870  0.125370  0.757380  1.0  -0.5806
  O  O3361  1  0.372830  0.175900  0.590470  1.0  -0.5915
  O  O3362  1  0.397730  0.153330  0.591020  1.0  -0.5427
  O  O3363  1  0.205250  0.029110  0.648060  1.0  -0.5844
  O  O3364  1  0.225310  0.029000  0.687690  1.0  -0.5823
  O  O3365  1  0.371720  0.343150  0.504890  1.0  -0.56
  O  O3366  1  0.331250  0.302720  0.485130  1.0  -0.5759
  O  O3367  1  0.383940  0.188380  0.532580  1.0  -0.569
  O  O3368  1  0.408130  0.165510  0.533500  1.0  -0.5789
  O  O3369  1  0.414570  0.824100  0.196930  1.0  -0.5871
  O  O3370  1  0.437690  0.846670  0.244400  1.0  -0.5448
  O  O3371  1  0.618950  0.970890  0.176140  1.0  -0.5842
  O  O3372  1  0.658690  0.971000  0.196310  1.0  -0.5756
  O  O3373  1  0.161740  0.656850  0.028570  1.0  -0.5565
  O  O3374  1  0.182410  0.697280  0.028530  1.0  -0.5613
  O  O3375  1  0.344200  0.811620  0.195560  1.0  -0.5693
  O  O3376  1  0.367990  0.834490  0.242620  1.0  -0.5777
  O  O3377  1  0.217640  0.803070  0.627170  1.0  -0.592
  O  O3378  1  0.193290  0.755600  0.602270  1.0  -0.5462
  O  O3379  1  0.442810  0.823860  0.794750  1.0  -0.5886
  O  O3380  1  0.462380  0.803690  0.774690  1.0  -0.5783
  O  O3381  1  0.133170  0.971430  0.628280  1.0  -0.5575
  O  O3382  1  0.153880  0.971470  0.668750  1.0  -0.5675
  O  O3383  1  0.148640  0.804440  0.616060  1.0  -0.5676
  O  O3384  1  0.125370  0.757380  0.591870  1.0  -0.5817
  O  O3385  1  0.782360  0.409530  0.585430  1.0  -0.5865
  O  O3386  1  0.806710  0.408980  0.562310  1.0  -0.5402
  O  O3387  1  0.557190  0.351940  0.381050  1.0  -0.5893
  O  O3388  1  0.537620  0.312310  0.341310  1.0  -0.5809
  O  O3389  1  0.866830  0.495110  0.838260  1.0  -0.5595
  O  O3390  1  0.846120  0.514870  0.817590  1.0  -0.5641
  O  O3391  1  0.851360  0.467420  0.655800  1.0  -0.5696
  O  O3392  1  0.874630  0.466500  0.632010  1.0  -0.5781
  O  O3393  1  0.824100  0.196930  0.414570  1.0  -0.5887
  O  O3394  1  0.846670  0.244400  0.437690  1.0  -0.5434
  O  O3395  1  0.970890  0.176140  0.618950  1.0  -0.5852
  O  O3396  1  0.971000  0.196310  0.658690  1.0  -0.5768
  O  O3397  1  0.656850  0.028570  0.161740  1.0  -0.5561
  O  O3398  1  0.697280  0.028530  0.182410  1.0  -0.5613
  O  O3399  1  0.811620  0.195560  0.344200  1.0  -0.5679
  O  O3400  1  0.834490  0.242620  0.367990  1.0  -0.5764
  O  O3401  1  0.175900  0.590470  0.372830  1.0  -0.5908
  O  O3402  1  0.153330  0.591020  0.397730  1.0  -0.5435
  O  O3403  1  0.029110  0.648060  0.205250  1.0  -0.584
  O  O3404  1  0.029000  0.687690  0.225310  1.0  -0.5839
  O  O3405  1  0.343150  0.504890  0.371720  1.0  -0.5599
  O  O3406  1  0.302720  0.485130  0.331250  1.0  -0.5729
  O  O3407  1  0.188380  0.532580  0.383940  1.0  -0.5674
  O  O3408  1  0.165510  0.533500  0.408130  1.0  -0.5801
  O  O3409  1  0.372830  0.590470  0.175900  1.0  -0.5936
  O  O3410  1  0.397730  0.591020  0.153330  1.0  -0.54
  O  O3411  1  0.205250  0.648060  0.029110  1.0  -0.5847
  O  O3412  1  0.225310  0.687690  0.029000  1.0  -0.5844
  O  O3413  1  0.371720  0.504890  0.343150  1.0  -0.5589
  O  O3414  1  0.331250  0.485130  0.302720  1.0  -0.5721
  O  O3415  1  0.383940  0.532580  0.188380  1.0  -0.569
  O  O3416  1  0.408130  0.533500  0.165510  1.0  -0.5799
  O  O3417  1  0.414570  0.196930  0.824100  1.0  -0.5892
  O  O3418  1  0.437690  0.244400  0.846670  1.0  -0.5446
  O  O3419  1  0.618950  0.176140  0.970890  1.0  -0.5841
  O  O3420  1  0.658690  0.196310  0.971000  1.0  -0.5752
  O  O3421  1  0.161740  0.028570  0.656850  1.0  -0.5561
  O  O3422  1  0.182410  0.028530  0.697280  1.0  -0.5606
  O  O3423  1  0.344200  0.195560  0.811620  1.0  -0.5686
  O  O3424  1  0.367990  0.242620  0.834490  1.0  -0.5768
  O  O3425  1  0.585430  0.409530  0.782360  1.0  -0.5842
  O  O3426  1  0.562310  0.408980  0.806710  1.0  -0.5432
  O  O3427  1  0.381050  0.351940  0.557190  1.0  -0.5887
  O  O3428  1  0.341310  0.312310  0.537620  1.0  -0.5805
  O  O3429  1  0.838260  0.495110  0.866830  1.0  -0.5603
  O  O3430  1  0.817590  0.514870  0.846120  1.0  -0.5651
  O  O3431  1  0.655800  0.467420  0.851360  1.0  -0.5677
  O  O3432  1  0.632010  0.466500  0.874630  1.0  -0.5781
  O  O3433  1  0.627170  0.803070  0.217640  1.0  -0.5918
  O  O3434  1  0.602270  0.755600  0.193290  1.0  -0.5452
  O  O3435  1  0.794750  0.823860  0.442810  1.0  -0.5876
  O  O3436  1  0.774690  0.803690  0.462380  1.0  -0.5789
  O  O3437  1  0.628280  0.971430  0.133170  1.0  -0.5574
  O  O3438  1  0.668750  0.971470  0.153880  1.0  -0.5679
  O  O3439  1  0.616060  0.804440  0.148640  1.0  -0.5669
  O  O3440  1  0.591870  0.757380  0.125370  1.0  -0.581
  O  O3441  1  0.175900  0.372830  0.590470  1.0  -0.5911
  O  O3442  1  0.153330  0.397730  0.591020  1.0  -0.5421
  O  O3443  1  0.029110  0.205250  0.648060  1.0  -0.5853
  O  O3444  1  0.029000  0.225310  0.687690  1.0  -0.5834
  O  O3445  1  0.343150  0.371720  0.504890  1.0  -0.5589
  O  O3446  1  0.302720  0.331250  0.485130  1.0  -0.5753
  O  O3447  1  0.188380  0.383940  0.532580  1.0  -0.5687
  O  O3448  1  0.165510  0.408130  0.533500  1.0  -0.5799
  O  O3449  1  0.824100  0.414570  0.196930  1.0  -0.589
  O  O3450  1  0.846670  0.437690  0.244400  1.0  -0.5443
  O  O3451  1  0.970890  0.618950  0.176140  1.0  -0.5851
  O  O3452  1  0.971000  0.658690  0.196310  1.0  -0.5775
  O  O3453  1  0.656850  0.161740  0.028570  1.0  -0.5564
  O  O3454  1  0.697280  0.182410  0.028530  1.0  -0.5615
  O  O3455  1  0.811620  0.344200  0.195560  1.0  -0.5683
  O  O3456  1  0.834490  0.367990  0.242620  1.0  -0.578
  O  O3457  1  0.782360  0.585430  0.409530  1.0  -0.5848
  O  O3458  1  0.806710  0.562310  0.408980  1.0  -0.5439
  O  O3459  1  0.557190  0.381050  0.351940  1.0  -0.5881
  O  O3460  1  0.537620  0.341310  0.312310  1.0  -0.5789
  O  O3461  1  0.866830  0.838260  0.495110  1.0  -0.5599
  O  O3462  1  0.846120  0.817590  0.514870  1.0  -0.5647
  O  O3463  1  0.851360  0.655800  0.467420  1.0  -0.5692
  O  O3464  1  0.874630  0.632010  0.466500  1.0  -0.577
  O  O3465  1  0.217640  0.627170  0.803070  1.0  -0.5934
  O  O3466  1  0.193290  0.602270  0.755600  1.0  -0.5399
  O  O3467  1  0.442810  0.794750  0.823860  1.0  -0.5887
  O  O3468  1  0.462380  0.774690  0.803690  1.0  -0.5793
  O  O3469  1  0.133170  0.628280  0.971430  1.0  -0.5591
  O  O3470  1  0.153880  0.668750  0.971470  1.0  -0.5697
  O  O3471  1  0.148640  0.616060  0.804440  1.0  -0.5688
  O  O3472  1  0.125370  0.591870  0.757380  1.0  -0.5806
  O  O3473  1  0.590470  0.175900  0.372830  1.0  -0.5921
  O  O3474  1  0.591020  0.153330  0.397730  1.0  -0.5456
  O  O3475  1  0.648060  0.029110  0.205250  1.0  -0.5836
  O  O3476  1  0.687690  0.029000  0.225310  1.0  -0.5831
  O  O3477  1  0.504890  0.343150  0.371720  1.0  -0.5594
  O  O3478  1  0.485130  0.302720  0.331250  1.0  -0.5739
  O  O3479  1  0.532580  0.188380  0.383940  1.0  -0.5691
  O  O3480  1  0.533500  0.165510  0.408130  1.0  -0.5809
  O  O3481  1  0.196930  0.824100  0.414570  1.0  -0.5865
  O  O3482  1  0.244400  0.846670  0.437690  1.0  -0.5434
  O  O3483  1  0.176140  0.970890  0.618950  1.0  -0.5846
  O  O3484  1  0.196310  0.971000  0.658690  1.0  -0.5752
  O  O3485  1  0.028570  0.656850  0.161740  1.0  -0.5567
  O  O3486  1  0.028530  0.697280  0.182410  1.0  -0.5618
  O  O3487  1  0.195560  0.811620  0.344200  1.0  -0.5693
  O  O3488  1  0.242620  0.834490  0.367990  1.0  -0.5754
  O  O3489  1  0.409530  0.782360  0.585430  1.0  -0.5891
  O  O3490  1  0.408980  0.806710  0.562310  1.0  -0.541
  O  O3491  1  0.351940  0.557190  0.381050  1.0  -0.5884
  O  O3492  1  0.312310  0.537620  0.341310  1.0  -0.5806
  O  O3493  1  0.495110  0.866830  0.838260  1.0  -0.5592
  O  O3494  1  0.514870  0.846120  0.817590  1.0  -0.5656
  O  O3495  1  0.467420  0.851360  0.655800  1.0  -0.5697
  O  O3496  1  0.466500  0.874630  0.632010  1.0  -0.5795
  O  O3497  1  0.803070  0.217640  0.627170  1.0  -0.5919
  O  O3498  1  0.755600  0.193290  0.602270  1.0  -0.5427
  O  O3499  1  0.823860  0.442810  0.794750  1.0  -0.5881
  O  O3500  1  0.803690  0.462380  0.774690  1.0  -0.5781
  O  O3501  1  0.971430  0.133170  0.628280  1.0  -0.5587
  O  O3502  1  0.971470  0.153880  0.668750  1.0  -0.5688
  O  O3503  1  0.804440  0.148640  0.616060  1.0  -0.5676
  O  O3504  1  0.757380  0.125370  0.591870  1.0  -0.5802
  O  O3505  1  0.803070  0.585430  0.175900  1.0  -0.5866
  O  O3506  1  0.755600  0.562310  0.153330  1.0  -0.5448
  O  O3507  1  0.823860  0.381050  0.029110  1.0  -0.5841
  O  O3508  1  0.803690  0.341310  0.029000  1.0  -0.5762
  O  O3509  1  0.971430  0.838260  0.343150  1.0  -0.5568
  O  O3510  1  0.971470  0.817590  0.302720  1.0  -0.5616
  O  O3511  1  0.804440  0.655800  0.188380  1.0  -0.5693
  O  O3512  1  0.757380  0.632010  0.165510  1.0  -0.5766
  O  O3513  1  0.409530  0.627170  0.824100  1.0  -0.5934
  O  O3514  1  0.408980  0.602270  0.846670  1.0  -0.5418
  O  O3515  1  0.351940  0.794750  0.970890  1.0  -0.5844
  O  O3516  1  0.312310  0.774690  0.971000  1.0  -0.584
  O  O3517  1  0.495110  0.628280  0.656850  1.0  -0.5612
  O  O3518  1  0.514870  0.668750  0.697280  1.0  -0.5739
  O  O3519  1  0.467420  0.616060  0.811620  1.0  -0.5689
  O  O3520  1  0.466500  0.591870  0.834490  1.0  -0.5807
  O  O3521  1  0.196930  0.372830  0.782360  1.0  -0.5921
  O  O3522  1  0.244400  0.397730  0.806710  1.0  -0.5396
  O  O3523  1  0.176140  0.205250  0.557190  1.0  -0.5889
  O  O3524  1  0.196310  0.225310  0.537620  1.0  -0.5789
  O  O3525  1  0.028570  0.371720  0.866830  1.0  -0.5576
  O  O3526  1  0.028530  0.331250  0.846120  1.0  -0.5695
  O  O3527  1  0.195560  0.383940  0.851360  1.0  -0.5669
  O  O3528  1  0.242620  0.408130  0.874630  1.0  -0.5805
  O  O3529  1  0.590470  0.414570  0.217640  1.0  -0.5868
  O  O3530  1  0.591020  0.437690  0.193290  1.0  -0.5444
  O  O3531  1  0.648060  0.618950  0.442810  1.0  -0.5888
  O  O3532  1  0.687690  0.658690  0.462380  1.0  -0.5801
  O  O3533  1  0.504890  0.161740  0.133170  1.0  -0.5605
  O  O3534  1  0.485130  0.182410  0.153880  1.0  -0.5653
  O  O3535  1  0.532580  0.344200  0.148640  1.0  -0.5687
  O  O3536  1  0.533500  0.367990  0.125370  1.0  -0.5792
  O  O3537  1  0.414570  0.217640  0.590470  1.0  -0.587
  O  O3538  1  0.437690  0.193290  0.591020  1.0  -0.5422
  O  O3539  1  0.618950  0.442810  0.648060  1.0  -0.589
  O  O3540  1  0.658690  0.462380  0.687690  1.0  -0.5802
  O  O3541  1  0.161740  0.133170  0.504890  1.0  -0.5604
  O  O3542  1  0.182410  0.153880  0.485130  1.0  -0.5653
  O  O3543  1  0.344200  0.148640  0.532580  1.0  -0.5692
  O  O3544  1  0.367990  0.125370  0.533500  1.0  -0.5785
  O  O3545  1  0.372830  0.782360  0.196930  1.0  -0.594
  O  O3546  1  0.397730  0.806710  0.244400  1.0  -0.5403
  O  O3547  1  0.205250  0.557190  0.176140  1.0  -0.5883
  O  O3548  1  0.225310  0.537620  0.196310  1.0  -0.5799
  O  O3549  1  0.371720  0.866830  0.028570  1.0  -0.557
  O  O3550  1  0.331250  0.846120  0.028530  1.0  -0.5692
  O  O3551  1  0.383940  0.851360  0.195560  1.0  -0.5673
  O  O3552  1  0.408130  0.874630  0.242620  1.0  -0.5823
  O  O3553  1  0.627170  0.824100  0.409530  1.0  -0.5896
  O  O3554  1  0.602270  0.846670  0.408980  1.0  -0.5425
  O  O3555  1  0.794750  0.970890  0.351940  1.0  -0.584
  O  O3556  1  0.774690  0.971000  0.312310  1.0  -0.584
  O  O3557  1  0.628280  0.656850  0.495110  1.0  -0.561
  O  O3558  1  0.668750  0.697280  0.514870  1.0  -0.5733
  O  O3559  1  0.616060  0.811620  0.467420  1.0  -0.5681
  O  O3560  1  0.591870  0.834490  0.466500  1.0  -0.5783
  O  O3561  1  0.585430  0.175900  0.803070  1.0  -0.5869
  O  O3562  1  0.562310  0.153330  0.755600  1.0  -0.545
  O  O3563  1  0.381050  0.029110  0.823860  1.0  -0.5843
  O  O3564  1  0.341310  0.029000  0.803690  1.0  -0.5751
  O  O3565  1  0.838260  0.343150  0.971430  1.0  -0.5559
  O  O3566  1  0.817590  0.302720  0.971470  1.0  -0.5618
  O  O3567  1  0.655800  0.188380  0.804440  1.0  -0.5707
  O  O3568  1  0.632010  0.165510  0.757380  1.0  -0.5786
  O  O3569  1  0.782360  0.196930  0.372830  1.0  -0.5937
  O  O3570  1  0.806710  0.244400  0.397730  1.0  -0.5437
  O  O3571  1  0.557190  0.176140  0.205250  1.0  -0.5877
  O  O3572  1  0.537620  0.196310  0.225310  1.0  -0.5783
  O  O3573  1  0.866830  0.028570  0.371720  1.0  -0.5572
  O  O3574  1  0.846120  0.028530  0.331250  1.0  -0.5694
  O  O3575  1  0.851360  0.195560  0.383940  1.0  -0.568
  O  O3576  1  0.874630  0.242620  0.408130  1.0  -0.5806
  O  O3577  1  0.217640  0.590470  0.414570  1.0  -0.5884
  O  O3578  1  0.193290  0.591020  0.437690  1.0  -0.5415
  O  O3579  1  0.442810  0.648060  0.618950  1.0  -0.5878
  O  O3580  1  0.462380  0.687690  0.658690  1.0  -0.5806
  O  O3581  1  0.133170  0.504890  0.161740  1.0  -0.5597
  O  O3582  1  0.153880  0.485130  0.182410  1.0  -0.5647
  O  O3583  1  0.148640  0.532580  0.344200  1.0  -0.568
  O  O3584  1  0.125370  0.533500  0.367990  1.0  -0.5779
  O  O3585  1  0.175900  0.803070  0.585430  1.0  -0.5867
  O  O3586  1  0.153330  0.755600  0.562310  1.0  -0.5472
  O  O3587  1  0.029110  0.823860  0.381050  1.0  -0.5859
  O  O3588  1  0.029000  0.803690  0.341310  1.0  -0.577
  O  O3589  1  0.343150  0.971430  0.838260  1.0  -0.5559
  O  O3590  1  0.302720  0.971470  0.817590  1.0  -0.5622
  O  O3591  1  0.188380  0.804440  0.655800  1.0  -0.5676
  O  O3592  1  0.165510  0.757380  0.632010  1.0  -0.5781
  O  O3593  1  0.824100  0.409530  0.627170  1.0  -0.5901
  O  O3594  1  0.846670  0.408980  0.602270  1.0  -0.5433
  O  O3595  1  0.970890  0.351940  0.794750  1.0  -0.5848
  O  O3596  1  0.971000  0.312310  0.774690  1.0  -0.5856
  O  O3597  1  0.656850  0.495110  0.628280  1.0  -0.5608
  O  O3598  1  0.697280  0.514870  0.668750  1.0  -0.5718
  O  O3599  1  0.811620  0.467420  0.616060  1.0  -0.5678
  O  O3600  1  0.834490  0.466500  0.591870  1.0  -0.5813
