# generated using pymatgen
data_GaAg3H27C39(NO)6
_symmetry_space_group_name_H-M   'P 1'
_cell_length_a   22.99300000
_cell_length_b   22.99300000
_cell_length_c   71.29700000
_cell_angle_alpha   90.00000000
_cell_angle_beta   90.00000000
_cell_angle_gamma   120.00000000
_symmetry_Int_Tables_number   1
_chemical_formula_structural   GaAg3H27C39(NO)6
_chemical_formula_sum   'Ga18 Ag54 H486 C702 N108 O108'
_cell_volume   32643.23312126
_cell_formula_units_Z   18
loop_
 _symmetry_equiv_pos_site_id
 _symmetry_equiv_pos_as_xyz
  1  'x, y, z'
loop_
 _atom_site_type_symbol
 _atom_site_label
 _atom_site_symmetry_multiplicity
 _atom_site_fract_x
 _atom_site_fract_y
 _atom_site_fract_z
 _atom_site_occupancy
 _atom_site_charge
  Ga  Ga1  1  0.333333  0.666667  0.409690  1.0  1.5202
  Ga  Ga2  1  0.000000  0.000000  0.743020  1.0  1.5204
  Ga  Ga3  1  0.666667  0.333333  0.076360  1.0  1.5199
  Ga  Ga4  1  0.333333  0.666667  0.909690  1.0  1.5202
  Ga  Ga5  1  0.000000  0.000000  0.243020  1.0  1.5204
  Ga  Ga6  1  0.666667  0.333333  0.576360  1.0  1.5199
  Ga  Ga7  1  0.333333  0.666667  0.321360  1.0  1.5392
  Ga  Ga8  1  0.000000  0.000000  0.654690  1.0  1.5392
  Ga  Ga9  1  0.666667  0.333333  0.988030  1.0  1.5392
  Ga  Ga10  1  0.333333  0.666667  0.821360  1.0  1.5392
  Ga  Ga11  1  0.000000  0.000000  0.154690  1.0  1.5392
  Ga  Ga12  1  0.666667  0.333333  0.488030  1.0  1.5392
  Ga  Ga13  1  0.333333  0.666667  0.226810  1.0  1.5138
  Ga  Ga14  1  0.000000  0.000000  0.560140  1.0  1.5139
  Ga  Ga15  1  0.666667  0.333333  0.893480  1.0  1.5138
  Ga  Ga16  1  0.333333  0.666667  0.726810  1.0  1.5138
  Ga  Ga17  1  0.000000  0.000000  0.060140  1.0  1.5139
  Ga  Ga18  1  0.666667  0.333333  0.393480  1.0  1.5138
  Ag  Ag19  1  0.026200  0.511380  0.500990  1.0  0.2451
  Ag  Ag20  1  0.692870  0.844710  0.834320  1.0  0.245
  Ag  Ag21  1  0.359530  0.178050  0.167660  1.0  0.2442
  Ag  Ag22  1  0.488620  0.514820  0.500990  1.0  0.2463
  Ag  Ag23  1  0.155290  0.848150  0.834320  1.0  0.2459
  Ag  Ag24  1  0.821950  0.181490  0.167660  1.0  0.2451
  Ag  Ag25  1  0.485180  0.973800  0.500990  1.0  0.2459
  Ag  Ag26  1  0.151850  0.307130  0.834320  1.0  0.2451
  Ag  Ag27  1  0.818510  0.640470  0.167660  1.0  0.2444
  Ag  Ag28  1  0.488620  0.973800  0.000990  1.0  0.2449
  Ag  Ag29  1  0.155290  0.307130  0.334320  1.0  0.2449
  Ag  Ag30  1  0.821950  0.640470  0.667660  1.0  0.2446
  Ag  Ag31  1  0.485180  0.511380  0.000990  1.0  0.2456
  Ag  Ag32  1  0.151850  0.844710  0.334320  1.0  0.2452
  Ag  Ag33  1  0.818510  0.178050  0.667660  1.0  0.2444
  Ag  Ag34  1  0.026200  0.514820  0.000990  1.0  0.2453
  Ag  Ag35  1  0.692870  0.848150  0.334320  1.0  0.2446
  Ag  Ag36  1  0.359530  0.181490  0.667660  1.0  0.2434
  Ag  Ag37  1  0.998450  0.461660  0.404120  1.0  0.1695
  Ag  Ag38  1  0.665120  0.794990  0.737450  1.0  0.1695
  Ag  Ag39  1  0.331780  0.128330  0.070790  1.0  0.1691
  Ag  Ag40  1  0.538340  0.536790  0.404120  1.0  0.1703
  Ag  Ag41  1  0.205010  0.870120  0.737450  1.0  0.1703
  Ag  Ag42  1  0.871670  0.203460  0.070790  1.0  0.1698
  Ag  Ag43  1  0.463210  0.001550  0.404120  1.0  0.1696
  Ag  Ag44  1  0.129880  0.334880  0.737450  1.0  0.1696
  Ag  Ag45  1  0.796540  0.668220  0.070790  1.0  0.1692
  Ag  Ag46  1  0.538340  0.001550  0.904120  1.0  0.17
  Ag  Ag47  1  0.205010  0.334880  0.237450  1.0  0.17
  Ag  Ag48  1  0.871670  0.668220  0.570790  1.0  0.1696
  Ag  Ag49  1  0.463210  0.461660  0.904120  1.0  0.1685
  Ag  Ag50  1  0.129880  0.794990  0.237450  1.0  0.1685
  Ag  Ag51  1  0.796540  0.128330  0.570790  1.0  0.168
  Ag  Ag52  1  0.998450  0.536790  0.904120  1.0  0.1702
  Ag  Ag53  1  0.665120  0.870120  0.237450  1.0  0.1702
  Ag  Ag54  1  0.331780  0.203460  0.570790  1.0  0.1698
  Ag  Ag55  1  0.971150  0.487300  0.301780  1.0  0.21
  Ag  Ag56  1  0.637820  0.820630  0.635110  1.0  0.2099
  Ag  Ag57  1  0.304480  0.153970  0.968450  1.0  0.2103
  Ag  Ag58  1  0.512700  0.483850  0.301780  1.0  0.2101
  Ag  Ag59  1  0.179370  0.817180  0.635110  1.0  0.2105
  Ag  Ag60  1  0.846030  0.150520  0.968450  1.0  0.2103
  Ag  Ag61  1  0.516150  0.028850  0.301780  1.0  0.2105
  Ag  Ag62  1  0.182820  0.362180  0.635110  1.0  0.2107
  Ag  Ag63  1  0.849480  0.695520  0.968450  1.0  0.2107
  Ag  Ag64  1  0.512700  0.028850  0.801780  1.0  0.2102
  Ag  Ag65  1  0.179370  0.362180  0.135110  1.0  0.2101
  Ag  Ag66  1  0.846030  0.695520  0.468450  1.0  0.2104
  Ag  Ag67  1  0.516150  0.487300  0.801780  1.0  0.2107
  Ag  Ag68  1  0.182820  0.820630  0.135110  1.0  0.211
  Ag  Ag69  1  0.849480  0.153970  0.468450  1.0  0.2109
  Ag  Ag70  1  0.971150  0.483850  0.801780  1.0  0.2103
  Ag  Ag71  1  0.637820  0.817180  0.135110  1.0  0.2105
  Ag  Ag72  1  0.304480  0.150520  0.468450  1.0  0.2106
  H  H73  1  0.314600  0.479800  0.417700  1.0  0.0989
  H  H74  1  0.177700  0.575400  0.488000  1.0  0.1066
  H  H75  1  0.242700  0.621800  0.461000  1.0  0.0995
  H  H76  1  0.515500  0.922800  0.432800  1.0  0.1137
  H  H77  1  0.534200  0.987800  0.459800  1.0  0.1005
  H  H78  1  0.241000  0.781600  0.340000  1.0  0.1035
  H  H79  1  0.269900  0.728800  0.363300  1.0  0.1089
  H  H80  1  0.147100  0.750100  0.400000  1.0  0.1185
  H  H81  1  0.118200  0.802900  0.376700  1.0  0.1088
  H  H82  1  0.981270  0.813130  0.751030  1.0  0.0989
  H  H83  1  0.844370  0.908730  0.821330  1.0  0.1066
  H  H84  1  0.909370  0.955130  0.794330  1.0  0.0995
  H  H85  1  0.182170  0.256130  0.766130  1.0  0.1137
  H  H86  1  0.200870  0.321130  0.793130  1.0  0.1008
  H  H87  1  0.907670  0.114930  0.673330  1.0  0.1035
  H  H88  1  0.936570  0.062130  0.696630  1.0  0.1088
  H  H89  1  0.813770  0.083430  0.733330  1.0  0.1185
  H  H90  1  0.784870  0.136230  0.710030  1.0  0.1083
  H  H91  1  0.647930  0.146470  0.084370  1.0  0.0989
  H  H92  1  0.511030  0.242070  0.154670  1.0  0.1085
  H  H93  1  0.576030  0.288470  0.127670  1.0  0.0995
  H  H94  1  0.848830  0.589470  0.099470  1.0  0.1137
  H  H95  1  0.867530  0.654470  0.126470  1.0  0.1002
  H  H96  1  0.574330  0.448270  0.006670  1.0  0.1035
  H  H97  1  0.603230  0.395470  0.029970  1.0  0.1089
  H  H98  1  0.480430  0.416770  0.066670  1.0  0.1185
  H  H99  1  0.451530  0.469570  0.043370  1.0  0.1091
  H  H100  1  0.520200  0.834800  0.417700  1.0  0.0969
  H  H101  1  0.424600  0.602300  0.488000  1.0  0.1068
  H  H102  1  0.378200  0.620900  0.461000  1.0  0.0992
  H  H103  1  0.077200  0.592700  0.432800  1.0  0.1136
  H  H104  1  0.012200  0.546400  0.459800  1.0  0.0983
  H  H105  1  0.218400  0.459400  0.340000  1.0  0.1029
  H  H106  1  0.271200  0.541100  0.363300  1.0  0.1087
  H  H107  1  0.249900  0.397000  0.400000  1.0  0.1205
  H  H108  1  0.197100  0.315300  0.376700  1.0  0.1071
  H  H109  1  0.186870  0.168130  0.751030  1.0  0.0969
  H  H110  1  0.091270  0.935630  0.821330  1.0  0.1068
  H  H111  1  0.044870  0.954230  0.794330  1.0  0.0992
  H  H112  1  0.743870  0.926030  0.766130  1.0  0.1136
  H  H113  1  0.678870  0.879730  0.793130  1.0  0.0989
  H  H114  1  0.885070  0.792730  0.673330  1.0  0.1029
  H  H115  1  0.937870  0.874430  0.696630  1.0  0.1087
  H  H116  1  0.916570  0.730330  0.733330  1.0  0.1205
  H  H117  1  0.863770  0.648630  0.710030  1.0  0.1084
  H  H118  1  0.853530  0.501470  0.084370  1.0  0.0969
  H  H119  1  0.757930  0.268970  0.154670  1.0  0.1062
  H  H120  1  0.711530  0.287570  0.127670  1.0  0.0992
  H  H121  1  0.410530  0.259370  0.099470  1.0  0.1136
  H  H122  1  0.345530  0.213070  0.126470  1.0  0.0988
  H  H123  1  0.551730  0.126070  0.006670  1.0  0.1029
  H  H124  1  0.604530  0.207770  0.029970  1.0  0.1087
  H  H125  1  0.583230  0.063670  0.066670  1.0  0.1205
  H  H126  1  0.530430  0.981970  0.043370  1.0  0.1094
  H  H127  1  0.165200  0.685400  0.417700  1.0  0.0974
  H  H128  1  0.397700  0.822300  0.488000  1.0  0.1069
  H  H129  1  0.379100  0.757300  0.461000  1.0  0.0993
  H  H130  1  0.407300  0.484500  0.432800  1.0  0.1144
  H  H131  1  0.453600  0.465800  0.459800  1.0  0.1008
  H  H132  1  0.540600  0.759000  0.340000  1.0  0.1042
  H  H133  1  0.458900  0.730100  0.363300  1.0  0.1085
  H  H134  1  0.603000  0.852900  0.400000  1.0  0.1183
  H  H135  1  0.684700  0.881800  0.376700  1.0  0.1095
  H  H136  1  0.831870  0.018730  0.751030  1.0  0.0974
  H  H137  1  0.064370  0.155630  0.821330  1.0  0.1069
  H  H138  1  0.045770  0.090630  0.794330  1.0  0.0993
  H  H139  1  0.073970  0.817830  0.766130  1.0  0.1144
  H  H140  1  0.120270  0.799130  0.793130  1.0  0.1013
  H  H141  1  0.207270  0.092330  0.673330  1.0  0.1042
  H  H142  1  0.125570  0.063430  0.696630  1.0  0.1085
  H  H143  1  0.269670  0.186230  0.733330  1.0  0.1183
  H  H144  1  0.351370  0.215130  0.710030  1.0  0.1097
  H  H145  1  0.498530  0.352070  0.084370  1.0  0.0974
  H  H146  1  0.731030  0.488970  0.154670  1.0  0.107
  H  H147  1  0.712430  0.423970  0.127670  1.0  0.0993
  H  H148  1  0.740630  0.151170  0.099470  1.0  0.1144
  H  H149  1  0.786930  0.132470  0.126470  1.0  0.1012
  H  H150  1  0.873930  0.425670  0.006670  1.0  0.1042
  H  H151  1  0.792230  0.396770  0.029970  1.0  0.1085
  H  H152  1  0.936330  0.519570  0.066670  1.0  0.1183
  H  H153  1  0.018030  0.548470  0.043370  1.0  0.1094
  H  H154  1  0.520200  0.685400  0.917700  1.0  0.0974
  H  H155  1  0.424600  0.822300  0.988000  1.0  0.1067
  H  H156  1  0.378200  0.757300  0.961000  1.0  0.0994
  H  H157  1  0.077200  0.484500  0.932800  1.0  0.1142
  H  H158  1  0.012200  0.465800  0.959800  1.0  0.1007
  H  H159  1  0.218400  0.759000  0.840000  1.0  0.1043
  H  H160  1  0.271200  0.730100  0.863300  1.0  0.1085
  H  H161  1  0.249900  0.852900  0.900000  1.0  0.1188
  H  H162  1  0.197100  0.881800  0.876700  1.0  0.1096
  H  H163  1  0.186870  0.018730  0.251030  1.0  0.0974
  H  H164  1  0.091270  0.155630  0.321330  1.0  0.1067
  H  H165  1  0.044870  0.090630  0.294330  1.0  0.0994
  H  H166  1  0.743870  0.817830  0.266130  1.0  0.1142
  H  H167  1  0.678870  0.799130  0.293130  1.0  0.101
  H  H168  1  0.885070  0.092330  0.173330  1.0  0.1043
  H  H169  1  0.937870  0.063430  0.196630  1.0  0.1084
  H  H170  1  0.916570  0.186230  0.233330  1.0  0.1188
  H  H171  1  0.863770  0.215130  0.210030  1.0  0.109
  H  H172  1  0.853530  0.352070  0.584370  1.0  0.0974
  H  H173  1  0.757930  0.488970  0.654670  1.0  0.1083
  H  H174  1  0.711530  0.423970  0.627670  1.0  0.0994
  H  H175  1  0.410530  0.151170  0.599470  1.0  0.1142
  H  H176  1  0.345530  0.132470  0.626470  1.0  0.1004
  H  H177  1  0.551730  0.425670  0.506670  1.0  0.1043
  H  H178  1  0.604530  0.396770  0.529970  1.0  0.1085
  H  H179  1  0.583230  0.519570  0.566670  1.0  0.1188
  H  H180  1  0.530430  0.548470  0.543370  1.0  0.1093
  H  H181  1  0.165200  0.479800  0.917700  1.0  0.0975
  H  H182  1  0.397700  0.575400  0.988000  1.0  0.1078
  H  H183  1  0.379100  0.621800  0.961000  1.0  0.0992
  H  H184  1  0.407300  0.922800  0.932800  1.0  0.1131
  H  H185  1  0.453600  0.987800  0.959800  1.0  0.1006
  H  H186  1  0.540600  0.781600  0.840000  1.0  0.1037
  H  H187  1  0.458900  0.728800  0.863300  1.0  0.1086
  H  H188  1  0.603000  0.750100  0.900000  1.0  0.1179
  H  H189  1  0.684700  0.802900  0.876700  1.0  0.107
  H  H190  1  0.831870  0.813130  0.251030  1.0  0.0975
  H  H191  1  0.064370  0.908730  0.321330  1.0  0.1078
  H  H192  1  0.045770  0.955130  0.294330  1.0  0.0992
  H  H193  1  0.073970  0.256130  0.266130  1.0  0.1131
  H  H194  1  0.120270  0.321130  0.293130  1.0  0.1011
  H  H195  1  0.207270  0.114930  0.173330  1.0  0.1037
  H  H196  1  0.125570  0.062130  0.196630  1.0  0.1086
  H  H197  1  0.269670  0.083430  0.233330  1.0  0.1178
  H  H198  1  0.351370  0.136230  0.210030  1.0  0.1082
  H  H199  1  0.498530  0.146470  0.584370  1.0  0.0975
  H  H200  1  0.731030  0.242070  0.654670  1.0  0.1072
  H  H201  1  0.712430  0.288470  0.627670  1.0  0.0992
  H  H202  1  0.740630  0.589470  0.599470  1.0  0.1131
  H  H203  1  0.786930  0.654470  0.626470  1.0  0.101
  H  H204  1  0.873930  0.448270  0.506670  1.0  0.1037
  H  H205  1  0.792230  0.395470  0.529970  1.0  0.1086
  H  H206  1  0.936330  0.416770  0.566670  1.0  0.1179
  H  H207  1  0.018030  0.469570  0.543370  1.0  0.1089
  H  H208  1  0.314600  0.834800  0.917700  1.0  0.0981
  H  H209  1  0.177700  0.602300  0.988000  1.0  0.1066
  H  H210  1  0.242700  0.620900  0.961000  1.0  0.0991
  H  H211  1  0.515500  0.592700  0.932800  1.0  0.1139
  H  H212  1  0.534200  0.546400  0.959800  1.0  0.0996
  H  H213  1  0.241000  0.459400  0.840000  1.0  0.1033
  H  H214  1  0.269900  0.541100  0.863300  1.0  0.1081
  H  H215  1  0.147100  0.397000  0.900000  1.0  0.1204
  H  H216  1  0.118200  0.315300  0.876700  1.0  0.1097
  H  H217  1  0.981270  0.168130  0.251030  1.0  0.0981
  H  H218  1  0.844370  0.935630  0.321330  1.0  0.1066
  H  H219  1  0.909370  0.954230  0.294330  1.0  0.0991
  H  H220  1  0.182170  0.926030  0.266130  1.0  0.1139
  H  H221  1  0.200870  0.879730  0.293130  1.0  0.1002
  H  H222  1  0.907670  0.792730  0.173330  1.0  0.1033
  H  H223  1  0.936570  0.874430  0.196630  1.0  0.1081
  H  H224  1  0.813770  0.730330  0.233330  1.0  0.1204
  H  H225  1  0.784870  0.648630  0.210030  1.0  0.1099
  H  H226  1  0.647930  0.501470  0.584370  1.0  0.0981
  H  H227  1  0.511030  0.268970  0.654670  1.0  0.1067
  H  H228  1  0.576030  0.287570  0.627670  1.0  0.0991
  H  H229  1  0.848830  0.259370  0.599470  1.0  0.1139
  H  H230  1  0.867530  0.213070  0.626470  1.0  0.1001
  H  H231  1  0.574330  0.126070  0.506670  1.0  0.1033
  H  H232  1  0.603230  0.207770  0.529970  1.0  0.1081
  H  H233  1  0.480430  0.063670  0.566670  1.0  0.1204
  H  H234  1  0.451530  0.981970  0.543370  1.0  0.1097
  H  H235  1  0.363900  0.497100  0.320000  1.0  0.1105
  H  H236  1  0.989300  0.500900  0.362300  1.0  0.1014
  H  H237  1  0.060800  0.552600  0.336800  1.0  0.1112
  H  H238  1  0.371200  0.778700  0.369300  1.0  0.1088
  H  H239  1  0.391100  0.850300  0.394800  1.0  0.1014
  H  H240  1  0.086200  0.747200  0.279200  1.0  0.1052
  H  H241  1  0.117200  0.699100  0.303400  1.0  0.12
  H  H242  1  0.281000  0.732100  0.273600  1.0  0.1267
  H  H243  1  0.250100  0.780100  0.249400  1.0  0.1157
  H  H244  1  0.030570  0.830430  0.653330  1.0  0.1105
  H  H245  1  0.655970  0.834230  0.695630  1.0  0.1014
  H  H246  1  0.727470  0.885930  0.670130  1.0  0.1112
  H  H247  1  0.037870  0.112030  0.702630  1.0  0.1088
  H  H248  1  0.057770  0.183630  0.728130  1.0  0.1014
  H  H249  1  0.752870  0.080530  0.612530  1.0  0.1052
  H  H250  1  0.783870  0.032430  0.636730  1.0  0.12
  H  H251  1  0.947670  0.065430  0.606930  1.0  0.1267
  H  H252  1  0.916770  0.113430  0.582730  1.0  0.1157
  H  H253  1  0.697230  0.163770  0.986670  1.0  0.1105
  H  H254  1  0.322630  0.167570  0.028970  1.0  0.1013
  H  H255  1  0.394130  0.219270  0.003470  1.0  0.1112
  H  H256  1  0.704530  0.445370  0.035970  1.0  0.1088
  H  H257  1  0.724430  0.516970  0.061470  1.0  0.1014
  H  H258  1  0.419530  0.413870  0.945870  1.0  0.1052
  H  H259  1  0.450530  0.365770  0.970070  1.0  0.12
  H  H260  1  0.614330  0.398770  0.940270  1.0  0.1267
  H  H261  1  0.583430  0.446770  0.916070  1.0  0.1157
  H  H262  1  0.502900  0.866800  0.320000  1.0  0.1106
  H  H263  1  0.499100  0.488400  0.362300  1.0  0.1008
  H  H264  1  0.447400  0.508200  0.336800  1.0  0.1119
  H  H265  1  0.221300  0.592500  0.369300  1.0  0.1084
  H  H266  1  0.149700  0.540800  0.394800  1.0  0.1028
  H  H267  1  0.252800  0.339000  0.279200  1.0  0.1081
  H  H268  1  0.300900  0.418100  0.303400  1.0  0.1197
  H  H269  1  0.267900  0.548900  0.273600  1.0  0.1268
  H  H270  1  0.219900  0.470000  0.249400  1.0  0.1142
  H  H271  1  0.169570  0.200130  0.653330  1.0  0.1106
  H  H272  1  0.165770  0.821730  0.695630  1.0  0.1008
  H  H273  1  0.114070  0.841530  0.670130  1.0  0.1119
  H  H274  1  0.887970  0.925830  0.702630  1.0  0.1084
  H  H275  1  0.816370  0.874130  0.728130  1.0  0.1028
  H  H276  1  0.919470  0.672330  0.612530  1.0  0.108
  H  H277  1  0.967570  0.751430  0.636730  1.0  0.1197
  H  H278  1  0.934570  0.882230  0.606930  1.0  0.1268
  H  H279  1  0.886570  0.803330  0.582730  1.0  0.1142
  H  H280  1  0.836230  0.533470  0.986670  1.0  0.1106
  H  H281  1  0.832430  0.155070  0.028970  1.0  0.1007
  H  H282  1  0.780730  0.174870  0.003470  1.0  0.1119
  H  H283  1  0.554630  0.259170  0.035970  1.0  0.1084
  H  H284  1  0.483030  0.207470  0.061470  1.0  0.1028
  H  H285  1  0.586130  0.005670  0.945870  1.0  0.1081
  H  H286  1  0.634230  0.084770  0.970070  1.0  0.1197
  H  H287  1  0.601230  0.215570  0.940270  1.0  0.1268
  H  H288  1  0.553230  0.136670  0.916070  1.0  0.1142
  H  H289  1  0.133200  0.636100  0.320000  1.0  0.1115
  H  H290  1  0.511600  0.010700  0.362300  1.0  0.1013
  H  H291  1  0.491800  0.939200  0.336800  1.0  0.1121
  H  H292  1  0.407500  0.628800  0.369300  1.0  0.1078
  H  H293  1  0.459200  0.608900  0.394800  1.0  0.1024
  H  H294  1  0.661000  0.913800  0.279200  1.0  0.108
  H  H295  1  0.581900  0.882800  0.303400  1.0  0.1198
  H  H296  1  0.451100  0.719000  0.273600  1.0  0.1246
  H  H297  1  0.530000  0.749900  0.249400  1.0  0.1156
  H  H298  1  0.799870  0.969430  0.653330  1.0  0.1115
  H  H299  1  0.178270  0.344030  0.695630  1.0  0.1013
  H  H300  1  0.158470  0.272530  0.670130  1.0  0.1121
  H  H301  1  0.074170  0.962130  0.702630  1.0  0.1078
  H  H302  1  0.125870  0.942230  0.728130  1.0  0.1024
  H  H303  1  0.327670  0.247130  0.612530  1.0  0.108
  H  H304  1  0.248570  0.216130  0.636730  1.0  0.1198
  H  H305  1  0.117770  0.052330  0.606930  1.0  0.1246
  H  H306  1  0.196670  0.083230  0.582730  1.0  0.1156
  H  H307  1  0.466530  0.302770  0.986670  1.0  0.1115
  H  H308  1  0.844930  0.677370  0.028970  1.0  0.1013
  H  H309  1  0.825130  0.605870  0.003470  1.0  0.1121
  H  H310  1  0.740830  0.295470  0.035970  1.0  0.1078
  H  H311  1  0.792530  0.275570  0.061470  1.0  0.1024
  H  H312  1  0.994330  0.580470  0.945870  1.0  0.108
  H  H313  1  0.915230  0.549470  0.970070  1.0  0.1198
  H  H314  1  0.784430  0.385670  0.940270  1.0  0.1246
  H  H315  1  0.863330  0.416570  0.916070  1.0  0.1156
  H  H316  1  0.502900  0.636100  0.820000  1.0  0.1127
  H  H317  1  0.499100  0.010700  0.862300  1.0  0.1015
  H  H318  1  0.447400  0.939200  0.836800  1.0  0.1122
  H  H319  1  0.221300  0.628800  0.869300  1.0  0.1076
  H  H320  1  0.149700  0.608900  0.894800  1.0  0.103
  H  H321  1  0.252800  0.913800  0.779200  1.0  0.1084
  H  H322  1  0.300900  0.882800  0.803400  1.0  0.1201
  H  H323  1  0.267900  0.719000  0.773600  1.0  0.1244
  H  H324  1  0.219900  0.749900  0.749400  1.0  0.1154
  H  H325  1  0.169570  0.969430  0.153330  1.0  0.1127
  H  H326  1  0.165770  0.344030  0.195630  1.0  0.1015
  H  H327  1  0.114070  0.272530  0.170130  1.0  0.1122
  H  H328  1  0.887970  0.962130  0.202630  1.0  0.1076
  H  H329  1  0.816370  0.942230  0.228130  1.0  0.103
  H  H330  1  0.919470  0.247130  0.112530  1.0  0.1085
  H  H331  1  0.967570  0.216130  0.136730  1.0  0.1201
  H  H332  1  0.934570  0.052330  0.106930  1.0  0.1244
  H  H333  1  0.886570  0.083230  0.082730  1.0  0.1154
  H  H334  1  0.836230  0.302770  0.486670  1.0  0.1127
  H  H335  1  0.832430  0.677370  0.528970  1.0  0.1014
  H  H336  1  0.780730  0.605870  0.503470  1.0  0.1122
  H  H337  1  0.554630  0.295470  0.535970  1.0  0.1076
  H  H338  1  0.483030  0.275570  0.561470  1.0  0.103
  H  H339  1  0.586130  0.580470  0.445870  1.0  0.1084
  H  H340  1  0.634230  0.549470  0.470070  1.0  0.1201
  H  H341  1  0.601230  0.385670  0.440270  1.0  0.1244
  H  H342  1  0.553230  0.416570  0.416070  1.0  0.1154
  H  H343  1  0.133200  0.497100  0.820000  1.0  0.1106
  H  H344  1  0.511600  0.500900  0.862300  1.0  0.1003
  H  H345  1  0.491800  0.552600  0.836800  1.0  0.1112
  H  H346  1  0.407500  0.778700  0.869300  1.0  0.1093
  H  H347  1  0.459200  0.850300  0.894800  1.0  0.1013
  H  H348  1  0.661000  0.747200  0.779200  1.0  0.1067
  H  H349  1  0.581900  0.699100  0.803400  1.0  0.1199
  H  H350  1  0.451100  0.732100  0.773600  1.0  0.127
  H  H351  1  0.530000  0.780100  0.749400  1.0  0.1156
  H  H352  1  0.799870  0.830430  0.153330  1.0  0.1106
  H  H353  1  0.178270  0.834230  0.195630  1.0  0.1003
  H  H354  1  0.158470  0.885930  0.170130  1.0  0.1112
  H  H355  1  0.074170  0.112030  0.202630  1.0  0.1093
  H  H356  1  0.125870  0.183630  0.228130  1.0  0.1013
  H  H357  1  0.327670  0.080530  0.112530  1.0  0.1067
  H  H358  1  0.248570  0.032430  0.136730  1.0  0.1199
  H  H359  1  0.117770  0.065430  0.106930  1.0  0.127
  H  H360  1  0.196670  0.113430  0.082730  1.0  0.1156
  H  H361  1  0.466530  0.163770  0.486670  1.0  0.1106
  H  H362  1  0.844930  0.167570  0.528970  1.0  0.1002
  H  H363  1  0.825130  0.219270  0.503470  1.0  0.1112
  H  H364  1  0.740830  0.445370  0.535970  1.0  0.1093
  H  H365  1  0.792530  0.516970  0.561470  1.0  0.1013
  H  H366  1  0.994330  0.413870  0.445870  1.0  0.1067
  H  H367  1  0.915230  0.365770  0.470070  1.0  0.1199
  H  H368  1  0.784430  0.398770  0.440270  1.0  0.127
  H  H369  1  0.863330  0.446770  0.416070  1.0  0.1156
  H  H370  1  0.363900  0.866800  0.820000  1.0  0.1104
  H  H371  1  0.989300  0.488400  0.862300  1.0  0.1009
  H  H372  1  0.060800  0.508200  0.836800  1.0  0.112
  H  H373  1  0.371200  0.592500  0.869300  1.0  0.108
  H  H374  1  0.391100  0.540800  0.894800  1.0  0.1022
  H  H375  1  0.086200  0.339000  0.779200  1.0  0.1077
  H  H376  1  0.117200  0.418100  0.803400  1.0  0.1195
  H  H377  1  0.281000  0.548900  0.773600  1.0  0.1266
  H  H378  1  0.250100  0.470000  0.749400  1.0  0.1147
  H  H379  1  0.030570  0.200130  0.153330  1.0  0.1104
  H  H380  1  0.655970  0.821730  0.195630  1.0  0.1009
  H  H381  1  0.727470  0.841530  0.170130  1.0  0.112
  H  H382  1  0.037870  0.925830  0.202630  1.0  0.108
  H  H383  1  0.057770  0.874130  0.228130  1.0  0.1022
  H  H384  1  0.752870  0.672330  0.112530  1.0  0.1077
  H  H385  1  0.783870  0.751430  0.136730  1.0  0.1195
  H  H386  1  0.947670  0.882230  0.106930  1.0  0.1266
  H  H387  1  0.916770  0.803330  0.082730  1.0  0.1148
  H  H388  1  0.697230  0.533470  0.486670  1.0  0.1104
  H  H389  1  0.322630  0.155070  0.528970  1.0  0.1009
  H  H390  1  0.394130  0.174870  0.503470  1.0  0.112
  H  H391  1  0.704530  0.259170  0.535970  1.0  0.108
  H  H392  1  0.724430  0.207470  0.561470  1.0  0.1022
  H  H393  1  0.419530  0.005670  0.445870  1.0  0.1077
  H  H394  1  0.450530  0.084770  0.470070  1.0  0.1195
  H  H395  1  0.614330  0.215570  0.440270  1.0  0.1266
  H  H396  1  0.583430  0.136670  0.416070  1.0  0.1147
  H  H397  1  0.363200  0.504400  0.217200  1.0  0.0787
  H  H398  1  0.986800  0.554000  0.261200  1.0  0.1054
  H  H399  1  0.072400  0.612000  0.239300  1.0  0.1163
  H  H400  1  0.372300  0.804600  0.269100  1.0  0.1881
  H  H401  1  0.399900  0.890200  0.291100  1.0  0.1072
  H  H402  1  0.100300  0.695500  0.163100  1.0  0.1103
  H  H403  1  0.122400  0.649800  0.189600  1.0  0.1107
  H  H404  1  0.317700  0.796700  0.187900  1.0  0.1055
  H  H405  1  0.295700  0.842300  0.161300  1.0  0.1049
  H  H406  1  0.029870  0.837730  0.550530  1.0  0.0787
  H  H407  1  0.653470  0.887330  0.594530  1.0  0.107
  H  H408  1  0.739070  0.945330  0.572630  1.0  0.1163
  H  H409  1  0.038970  0.137930  0.602430  1.0  0.1881
  H  H410  1  0.066570  0.223530  0.624430  1.0  0.1072
  H  H411  1  0.766970  0.028830  0.496430  1.0  0.1103
  H  H412  1  0.789070  0.983130  0.522930  1.0  0.1107
  H  H413  1  0.984370  0.130030  0.521230  1.0  0.1055
  H  H414  1  0.962370  0.175630  0.494630  1.0  0.1052
  H  H415  1  0.696530  0.171070  0.883870  1.0  0.0787
  H  H416  1  0.320130  0.220670  0.927870  1.0  0.106
  H  H417  1  0.405730  0.278670  0.905970  1.0  0.1163
  H  H418  1  0.705630  0.471270  0.935770  1.0  0.1881
  H  H419  1  0.733230  0.556870  0.957770  1.0  0.1072
  H  H420  1  0.433630  0.362170  0.829770  1.0  0.1103
  H  H421  1  0.455730  0.316470  0.856270  1.0  0.1107
  H  H422  1  0.651030  0.463370  0.854570  1.0  0.1055
  H  H423  1  0.629030  0.508970  0.827970  1.0  0.1049
  H  H424  1  0.495600  0.858800  0.217200  1.0  0.0785
  H  H425  1  0.446000  0.432800  0.261200  1.0  0.1062
  H  H426  1  0.388000  0.460400  0.239300  1.0  0.1153
  H  H427  1  0.195400  0.567700  0.269100  1.0  0.1877
  H  H428  1  0.109800  0.509700  0.291100  1.0  0.1089
  H  H429  1  0.304500  0.404800  0.163100  1.0  0.111
  H  H430  1  0.350200  0.472600  0.189600  1.0  0.1096
  H  H431  1  0.203300  0.521000  0.187900  1.0  0.1058
  H  H432  1  0.157700  0.453400  0.161300  1.0  0.1045
  H  H433  1  0.162270  0.192130  0.550530  1.0  0.0785
  H  H434  1  0.112670  0.766130  0.594530  1.0  0.1104
  H  H435  1  0.054670  0.793730  0.572630  1.0  0.1153
  H  H436  1  0.862070  0.901030  0.602430  1.0  0.1877
  H  H437  1  0.776470  0.843030  0.624430  1.0  0.1089
  H  H438  1  0.971170  0.738130  0.496430  1.0  0.111
  H  H439  1  0.016870  0.805930  0.522930  1.0  0.1096
  H  H440  1  0.869970  0.854330  0.521230  1.0  0.1058
  H  H441  1  0.824370  0.786730  0.494630  1.0  0.1049
  H  H442  1  0.828930  0.525470  0.883870  1.0  0.0785
  H  H443  1  0.779330  0.099470  0.927870  1.0  0.1094
  H  H444  1  0.721330  0.127070  0.905970  1.0  0.1153
  H  H445  1  0.528730  0.234370  0.935770  1.0  0.1877
  H  H446  1  0.443130  0.176370  0.957770  1.0  0.1089
  H  H447  1  0.637830  0.071470  0.829770  1.0  0.1109
  H  H448  1  0.683530  0.139270  0.856270  1.0  0.1096
  H  H449  1  0.536630  0.187670  0.854570  1.0  0.1058
  H  H450  1  0.491030  0.120070  0.827970  1.0  0.1045
  H  H451  1  0.141200  0.636800  0.217200  1.0  0.0791
  H  H452  1  0.567200  0.013200  0.261200  1.0  0.11
  H  H453  1  0.539600  0.927600  0.239300  1.0  0.1189
  H  H454  1  0.432300  0.627700  0.269100  1.0  0.1867
  H  H455  1  0.490300  0.600100  0.291100  1.0  0.1075
  H  H456  1  0.595200  0.899700  0.163100  1.0  0.1107
  H  H457  1  0.527400  0.877600  0.189600  1.0  0.1113
  H  H458  1  0.479000  0.682300  0.187900  1.0  0.1052
  H  H459  1  0.546600  0.704300  0.161300  1.0  0.1048
  H  H460  1  0.807870  0.970130  0.550530  1.0  0.079
  H  H461  1  0.233870  0.346530  0.594530  1.0  0.1081
  H  H462  1  0.206270  0.260930  0.572630  1.0  0.1189
  H  H463  1  0.098970  0.961030  0.602430  1.0  0.1867
  H  H464  1  0.156970  0.933430  0.624430  1.0  0.1075
  H  H465  1  0.261870  0.233030  0.496430  1.0  0.1107
  H  H466  1  0.194070  0.210930  0.522930  1.0  0.1113
  H  H467  1  0.145670  0.015630  0.521230  1.0  0.1052
  H  H468  1  0.213270  0.037630  0.494630  1.0  0.1056
  H  H469  1  0.474530  0.303470  0.883870  1.0  0.0791
  H  H470  1  0.900530  0.679870  0.927870  1.0  0.109
  H  H471  1  0.872930  0.594270  0.905970  1.0  0.1189
  H  H472  1  0.765630  0.294370  0.935770  1.0  0.1867
  H  H473  1  0.823630  0.266770  0.957770  1.0  0.1075
  H  H474  1  0.928530  0.566370  0.829770  1.0  0.1106
  H  H475  1  0.860730  0.544270  0.856270  1.0  0.1113
  H  H476  1  0.812330  0.348970  0.854570  1.0  0.1052
  H  H477  1  0.879930  0.370970  0.827970  1.0  0.1048
  H  H478  1  0.495600  0.636800  0.717200  1.0  0.0783
  H  H479  1  0.446000  0.013200  0.761200  1.0  0.1089
  H  H480  1  0.388000  0.927600  0.739300  1.0  0.1186
  H  H481  1  0.195400  0.627700  0.769100  1.0  0.1871
  H  H482  1  0.109800  0.600100  0.791100  1.0  0.1076
  H  H483  1  0.304500  0.899700  0.663100  1.0  0.1108
  H  H484  1  0.350200  0.877600  0.689600  1.0  0.1113
  H  H485  1  0.203300  0.682300  0.687900  1.0  0.1052
  H  H486  1  0.157700  0.704300  0.661300  1.0  0.1038
  H  H487  1  0.162270  0.970130  0.050530  1.0  0.0783
  H  H488  1  0.112670  0.346530  0.094530  1.0  0.1101
  H  H489  1  0.054670  0.260930  0.072630  1.0  0.1186
  H  H490  1  0.862070  0.961030  0.102430  1.0  0.1872
  H  H491  1  0.776470  0.933430  0.124430  1.0  0.1076
  H  H492  1  0.971170  0.233030  0.996430  1.0  0.1107
  H  H493  1  0.016870  0.210930  0.022930  1.0  0.1113
  H  H494  1  0.869970  0.015630  0.021230  1.0  0.1052
  H  H495  1  0.824370  0.037630  0.994630  1.0  0.104
  H  H496  1  0.828930  0.303470  0.383870  1.0  0.0783
  H  H497  1  0.779330  0.679870  0.427870  1.0  0.1091
  H  H498  1  0.721330  0.594270  0.405970  1.0  0.1186
  H  H499  1  0.528730  0.294370  0.435770  1.0  0.1871
  H  H500  1  0.443130  0.266770  0.457770  1.0  0.1076
  H  H501  1  0.637830  0.566370  0.329770  1.0  0.1108
  H  H502  1  0.683530  0.544270  0.356270  1.0  0.1113
  H  H503  1  0.536630  0.348970  0.354570  1.0  0.1052
  H  H504  1  0.491030  0.370970  0.327970  1.0  0.1038
  H  H505  1  0.141200  0.504400  0.717200  1.0  0.0788
  H  H506  1  0.567200  0.554000  0.761200  1.0  0.1042
  H  H507  1  0.539600  0.612000  0.739300  1.0  0.117
  H  H508  1  0.432300  0.804600  0.769100  1.0  0.1877
  H  H509  1  0.490300  0.890200  0.791100  1.0  0.107
  H  H510  1  0.595200  0.695500  0.663100  1.0  0.1107
  H  H511  1  0.527400  0.649800  0.689600  1.0  0.1108
  H  H512  1  0.479000  0.796700  0.687900  1.0  0.1059
  H  H513  1  0.546600  0.842300  0.661300  1.0  0.1043
  H  H514  1  0.807870  0.837730  0.050530  1.0  0.0788
  H  H515  1  0.233870  0.887330  0.094530  1.0  0.1085
  H  H516  1  0.206270  0.945330  0.072630  1.0  0.117
  H  H517  1  0.098970  0.137930  0.102430  1.0  0.1877
  H  H518  1  0.156970  0.223530  0.124430  1.0  0.107
  H  H519  1  0.261870  0.028830  0.996430  1.0  0.1107
  H  H520  1  0.194070  0.983130  0.022930  1.0  0.1108
  H  H521  1  0.145670  0.130030  0.021230  1.0  0.1059
  H  H522  1  0.213270  0.175630  0.994630  1.0  0.1047
  H  H523  1  0.474530  0.171070  0.383870  1.0  0.0788
  H  H524  1  0.900530  0.220670  0.427870  1.0  0.1075
  H  H525  1  0.872930  0.278670  0.405970  1.0  0.117
  H  H526  1  0.765630  0.471270  0.435770  1.0  0.1877
  H  H527  1  0.823630  0.556870  0.457770  1.0  0.107
  H  H528  1  0.928530  0.362170  0.329770  1.0  0.1107
  H  H529  1  0.860730  0.316470  0.356270  1.0  0.1108
  H  H530  1  0.812330  0.463370  0.354570  1.0  0.1059
  H  H531  1  0.879930  0.508970  0.327970  1.0  0.1043
  H  H532  1  0.363200  0.858800  0.717200  1.0  0.0793
  H  H533  1  0.986800  0.432800  0.761200  1.0  0.1092
  H  H534  1  0.072400  0.460400  0.739300  1.0  0.1158
  H  H535  1  0.372300  0.567700  0.769100  1.0  0.1864
  H  H536  1  0.399900  0.509700  0.791100  1.0  0.1083
  H  H537  1  0.100300  0.404800  0.663100  1.0  0.1096
  H  H538  1  0.122400  0.472600  0.689600  1.0  0.1103
  H  H539  1  0.317700  0.521000  0.687900  1.0  0.1053
  H  H540  1  0.295700  0.453400  0.661300  1.0  0.1049
  H  H541  1  0.029870  0.192130  0.050530  1.0  0.0792
  H  H542  1  0.653470  0.766130  0.094530  1.0  0.1076
  H  H543  1  0.739070  0.793730  0.072630  1.0  0.1158
  H  H544  1  0.038970  0.901030  0.102430  1.0  0.1864
  H  H545  1  0.066570  0.843030  0.124430  1.0  0.1083
  H  H546  1  0.766970  0.738130  0.996430  1.0  0.1096
  H  H547  1  0.789070  0.805930  0.022930  1.0  0.1103
  H  H548  1  0.984370  0.854330  0.021230  1.0  0.1053
  H  H549  1  0.962370  0.786730  0.994630  1.0  0.1057
  H  H550  1  0.696530  0.525470  0.383870  1.0  0.0793
  H  H551  1  0.320130  0.099470  0.427870  1.0  0.1084
  H  H552  1  0.405730  0.127070  0.405970  1.0  0.1158
  H  H553  1  0.705630  0.234370  0.435770  1.0  0.1864
  H  H554  1  0.733230  0.176370  0.457770  1.0  0.1083
  H  H555  1  0.433630  0.071470  0.329770  1.0  0.1095
  H  H556  1  0.455730  0.139270  0.356270  1.0  0.1103
  H  H557  1  0.651030  0.187670  0.354570  1.0  0.1053
  H  H558  1  0.629030  0.120070  0.327970  1.0  0.1049
  C  C559  1  0.207600  0.637000  0.427700  1.0  0.3558
  C  C560  1  0.325700  0.524400  0.414740  1.0  -0.0991
  C  C561  1  0.300600  0.532100  0.397430  1.0  0.222
  C  C562  1  0.157300  0.578900  0.476760  1.0  0.0913
  C  C563  1  0.195900  0.606500  0.460730  1.0  -0.0934
  C  C564  1  0.166000  0.611700  0.444350  1.0  -0.0189
  C  C565  1  0.491600  0.902400  0.443990  1.0  -0.1407
  C  C566  1  0.502700  0.941000  0.460020  1.0  0.1323
  C  C567  1  0.221900  0.775200  0.352150  1.0  0.1624
  C  C568  1  0.239100  0.743900  0.365980  1.0  -0.1678
  C  C569  1  0.211200  0.734500  0.383790  1.0  -0.1076
  C  C570  1  0.166200  0.756500  0.387780  1.0  -0.1269
  C  C571  1  0.149000  0.787800  0.373960  1.0  0.1253
  C  C572  1  0.874270  0.970330  0.761030  1.0  0.3558
  C  C573  1  0.992370  0.857730  0.748070  1.0  -0.0992
  C  C574  1  0.967270  0.865430  0.730760  1.0  0.222
  C  C575  1  0.823970  0.912230  0.810090  1.0  0.0913
  C  C576  1  0.862570  0.939830  0.794060  1.0  -0.0934
  C  C577  1  0.832670  0.945030  0.777680  1.0  -0.0189
  C  C578  1  0.158270  0.235730  0.777320  1.0  -0.1407
  C  C579  1  0.169370  0.274330  0.793350  1.0  0.1323
  C  C580  1  0.888570  0.108530  0.685480  1.0  0.1624
  C  C581  1  0.905770  0.077230  0.699310  1.0  -0.1678
  C  C582  1  0.877870  0.067830  0.717120  1.0  -0.1076
  C  C583  1  0.832870  0.089830  0.721110  1.0  -0.1269
  C  C584  1  0.815670  0.121130  0.707290  1.0  0.1253
  C  C585  1  0.540930  0.303670  0.094370  1.0  0.3558
  C  C586  1  0.659030  0.191070  0.081410  1.0  -0.0991
  C  C587  1  0.633930  0.198770  0.064100  1.0  0.222
  C  C588  1  0.490630  0.245570  0.143430  1.0  0.0913
  C  C589  1  0.529230  0.273170  0.127400  1.0  -0.0934
  C  C590  1  0.499330  0.278370  0.111020  1.0  -0.0189
  C  C591  1  0.824930  0.569070  0.110660  1.0  -0.1407
  C  C592  1  0.836030  0.607670  0.126690  1.0  0.1323
  C  C593  1  0.555230  0.441870  0.018820  1.0  0.1624
  C  C594  1  0.572430  0.410570  0.032650  1.0  -0.1678
  C  C595  1  0.544530  0.401170  0.050460  1.0  -0.1076
  C  C596  1  0.499530  0.423170  0.054450  1.0  -0.1269
  C  C597  1  0.482330  0.454470  0.040630  1.0  0.1253
  C  C598  1  0.363000  0.570600  0.427700  1.0  0.3545
  C  C599  1  0.475600  0.801300  0.414740  1.0  -0.1004
  C  C600  1  0.467900  0.768500  0.397430  1.0  0.2227
  C  C601  1  0.421100  0.578400  0.476760  1.0  0.0903
  C  C602  1  0.393500  0.589400  0.460730  1.0  -0.0962
  C  C603  1  0.388300  0.554300  0.444350  1.0  -0.0179
  C  C604  1  0.097600  0.589200  0.443990  1.0  -0.1404
  C  C605  1  0.059000  0.561700  0.460020  1.0  0.1319
  C  C606  1  0.224800  0.446700  0.352150  1.0  0.1574
  C  C607  1  0.256100  0.495200  0.365980  1.0  -0.1716
  C  C608  1  0.265500  0.476700  0.383790  1.0  -0.1057
  C  C609  1  0.243500  0.409700  0.387780  1.0  -0.1301
  C  C610  1  0.212200  0.361200  0.373960  1.0  0.1224
  C  C611  1  0.029670  0.903930  0.761030  1.0  0.3545
  C  C612  1  0.142270  0.134630  0.748070  1.0  -0.1004
  C  C613  1  0.134570  0.101830  0.730760  1.0  0.2227
  C  C614  1  0.087770  0.911730  0.810090  1.0  0.0903
  C  C615  1  0.060170  0.922730  0.794060  1.0  -0.0962
  C  C616  1  0.054970  0.887630  0.777680  1.0  -0.0179
  C  C617  1  0.764270  0.922530  0.777320  1.0  -0.1404
  C  C618  1  0.725670  0.895030  0.793350  1.0  0.1319
  C  C619  1  0.891470  0.780030  0.685480  1.0  0.1574
  C  C620  1  0.922770  0.828530  0.699310  1.0  -0.1716
  C  C621  1  0.932170  0.810030  0.717120  1.0  -0.1057
  C  C622  1  0.910170  0.743030  0.721110  1.0  -0.1301
  C  C623  1  0.878870  0.694530  0.707290  1.0  0.1224
  C  C624  1  0.696330  0.237270  0.094370  1.0  0.3545
  C  C625  1  0.808930  0.467970  0.081410  1.0  -0.1004
  C  C626  1  0.801230  0.435170  0.064100  1.0  0.2227
  C  C627  1  0.754430  0.245070  0.143430  1.0  0.0903
  C  C628  1  0.726830  0.256070  0.127400  1.0  -0.0962
  C  C629  1  0.721630  0.220970  0.111020  1.0  -0.0179
  C  C630  1  0.430930  0.255870  0.110660  1.0  -0.1404
  C  C631  1  0.392330  0.228370  0.126690  1.0  0.1319
  C  C632  1  0.558130  0.113370  0.018820  1.0  0.1574
  C  C633  1  0.589430  0.161870  0.032650  1.0  -0.1716
  C  C634  1  0.598830  0.143370  0.050460  1.0  -0.1057
  C  C635  1  0.576830  0.076370  0.054450  1.0  -0.1301
  C  C636  1  0.545530  0.027870  0.040630  1.0  0.1224
  C  C637  1  0.429400  0.792400  0.427700  1.0  0.3578
  C  C638  1  0.198700  0.674300  0.414740  1.0  -0.1025
  C  C639  1  0.231500  0.699400  0.397430  1.0  0.2199
  C  C640  1  0.421600  0.842700  0.476760  1.0  0.0912
  C  C641  1  0.410600  0.804100  0.460730  1.0  -0.0955
  C  C642  1  0.445700  0.834000  0.444350  1.0  -0.0187
  C  C643  1  0.410800  0.508400  0.443990  1.0  -0.1394
  C  C644  1  0.438300  0.497300  0.460020  1.0  0.1323
  C  C645  1  0.553300  0.778100  0.352150  1.0  0.1589
  C  C646  1  0.504800  0.760900  0.365980  1.0  -0.1647
  C  C647  1  0.523300  0.788800  0.383790  1.0  -0.1099
  C  C648  1  0.590300  0.833800  0.387780  1.0  -0.1261
  C  C649  1  0.638800  0.851000  0.373960  1.0  0.1236
  C  C650  1  0.096070  0.125730  0.761030  1.0  0.3578
  C  C651  1  0.865370  0.007630  0.748070  1.0  -0.1025
  C  C652  1  0.898170  0.032730  0.730760  1.0  0.2199
  C  C653  1  0.088270  0.176030  0.810090  1.0  0.0912
  C  C654  1  0.077270  0.137430  0.794060  1.0  -0.0955
  C  C655  1  0.112370  0.167330  0.777680  1.0  -0.0187
  C  C656  1  0.077470  0.841730  0.777320  1.0  -0.1394
  C  C657  1  0.104970  0.830630  0.793350  1.0  0.1323
  C  C658  1  0.219970  0.111430  0.685480  1.0  0.1589
  C  C659  1  0.171470  0.094230  0.699310  1.0  -0.1647
  C  C660  1  0.189970  0.122130  0.717120  1.0  -0.1099
  C  C661  1  0.256970  0.167130  0.721110  1.0  -0.1261
  C  C662  1  0.305470  0.184330  0.707290  1.0  0.1236
  C  C663  1  0.762730  0.459070  0.094370  1.0  0.3578
  C  C664  1  0.532030  0.340970  0.081410  1.0  -0.1025
  C  C665  1  0.564830  0.366070  0.064100  1.0  0.2199
  C  C666  1  0.754930  0.509370  0.143430  1.0  0.0912
  C  C667  1  0.743930  0.470770  0.127400  1.0  -0.0955
  C  C668  1  0.779030  0.500670  0.111020  1.0  -0.0187
  C  C669  1  0.744130  0.175070  0.110660  1.0  -0.1394
  C  C670  1  0.771630  0.163970  0.126690  1.0  0.1324
  C  C671  1  0.886630  0.444770  0.018820  1.0  0.1589
  C  C672  1  0.838130  0.427570  0.032650  1.0  -0.1647
  C  C673  1  0.856630  0.455470  0.050460  1.0  -0.1099
  C  C674  1  0.923630  0.500470  0.054450  1.0  -0.1261
  C  C675  1  0.972130  0.517670  0.040630  1.0  0.1236
  C  C676  1  0.363000  0.792400  0.927700  1.0  0.355
  C  C677  1  0.475600  0.674300  0.914740  1.0  -0.0996
  C  C678  1  0.467900  0.699400  0.897430  1.0  0.2218
  C  C679  1  0.421100  0.842700  0.976760  1.0  0.0904
  C  C680  1  0.393500  0.804100  0.960730  1.0  -0.0941
  C  C681  1  0.388300  0.834000  0.944350  1.0  -0.0189
  C  C682  1  0.097600  0.508400  0.943990  1.0  -0.1411
  C  C683  1  0.059000  0.497300  0.960020  1.0  0.1337
  C  C684  1  0.224800  0.778100  0.852150  1.0  0.1613
  C  C685  1  0.256100  0.760900  0.865980  1.0  -0.166
  C  C686  1  0.265500  0.788800  0.883790  1.0  -0.1085
  C  C687  1  0.243500  0.833800  0.887780  1.0  -0.1257
  C  C688  1  0.212200  0.851000  0.873960  1.0  0.1238
  C  C689  1  0.029670  0.125730  0.261030  1.0  0.355
  C  C690  1  0.142270  0.007630  0.248070  1.0  -0.0996
  C  C691  1  0.134570  0.032730  0.230760  1.0  0.2218
  C  C692  1  0.087770  0.176030  0.310090  1.0  0.0904
  C  C693  1  0.060170  0.137430  0.294060  1.0  -0.0941
  C  C694  1  0.054970  0.167330  0.277680  1.0  -0.0189
  C  C695  1  0.764270  0.841730  0.277320  1.0  -0.1411
  C  C696  1  0.725670  0.830630  0.293350  1.0  0.1337
  C  C697  1  0.891470  0.111430  0.185480  1.0  0.1613
  C  C698  1  0.922770  0.094230  0.199310  1.0  -0.166
  C  C699  1  0.932170  0.122130  0.217120  1.0  -0.1085
  C  C700  1  0.910170  0.167130  0.221110  1.0  -0.1257
  C  C701  1  0.878870  0.184330  0.207290  1.0  0.1238
  C  C702  1  0.696330  0.459070  0.594370  1.0  0.355
  C  C703  1  0.808930  0.340970  0.581410  1.0  -0.0996
  C  C704  1  0.801230  0.366070  0.564100  1.0  0.2218
  C  C705  1  0.754430  0.509370  0.643430  1.0  0.0904
  C  C706  1  0.726830  0.470770  0.627400  1.0  -0.0941
  C  C707  1  0.721630  0.500670  0.611020  1.0  -0.0189
  C  C708  1  0.430930  0.175070  0.610660  1.0  -0.1411
  C  C709  1  0.392330  0.163970  0.626690  1.0  0.1337
  C  C710  1  0.558130  0.444770  0.518820  1.0  0.1613
  C  C711  1  0.589430  0.427570  0.532650  1.0  -0.166
  C  C712  1  0.598830  0.455470  0.550460  1.0  -0.1085
  C  C713  1  0.576830  0.500470  0.554450  1.0  -0.1257
  C  C714  1  0.545530  0.517670  0.540630  1.0  0.1238
  C  C715  1  0.429400  0.637000  0.927700  1.0  0.355
  C  C716  1  0.198700  0.524400  0.914740  1.0  -0.1005
  C  C717  1  0.231500  0.532100  0.897430  1.0  0.2226
  C  C718  1  0.421600  0.578900  0.976760  1.0  0.0905
  C  C719  1  0.410600  0.606500  0.960730  1.0  -0.0966
  C  C720  1  0.445700  0.611700  0.944350  1.0  -0.0186
  C  C721  1  0.410800  0.902400  0.943990  1.0  -0.1411
  C  C722  1  0.438300  0.941000  0.960020  1.0  0.1334
  C  C723  1  0.553300  0.775200  0.852150  1.0  0.1625
  C  C724  1  0.504800  0.743900  0.865980  1.0  -0.1658
  C  C725  1  0.523300  0.734500  0.883790  1.0  -0.1089
  C  C726  1  0.590300  0.756500  0.887780  1.0  -0.126
  C  C727  1  0.638800  0.787800  0.873960  1.0  0.1242
  C  C728  1  0.096070  0.970330  0.261030  1.0  0.355
  C  C729  1  0.865370  0.857730  0.248070  1.0  -0.1005
  C  C730  1  0.898170  0.865430  0.230760  1.0  0.2226
  C  C731  1  0.088270  0.912230  0.310090  1.0  0.0905
  C  C732  1  0.077270  0.939830  0.294060  1.0  -0.0966
  C  C733  1  0.112370  0.945030  0.277680  1.0  -0.0186
  C  C734  1  0.077470  0.235730  0.277320  1.0  -0.1411
  C  C735  1  0.104970  0.274330  0.293350  1.0  0.1334
  C  C736  1  0.219970  0.108530  0.185480  1.0  0.1625
  C  C737  1  0.171470  0.077230  0.199310  1.0  -0.1658
  C  C738  1  0.189970  0.067830  0.217120  1.0  -0.1089
  C  C739  1  0.256970  0.089830  0.221110  1.0  -0.126
  C  C740  1  0.305470  0.121130  0.207290  1.0  0.1242
  C  C741  1  0.762730  0.303670  0.594370  1.0  0.355
  C  C742  1  0.532030  0.191070  0.581410  1.0  -0.1007
  C  C743  1  0.564830  0.198770  0.564100  1.0  0.2226
  C  C744  1  0.754930  0.245570  0.643430  1.0  0.0905
  C  C745  1  0.743930  0.273170  0.627400  1.0  -0.0966
  C  C746  1  0.779030  0.278370  0.611020  1.0  -0.0186
  C  C747  1  0.744130  0.569070  0.610660  1.0  -0.1411
  C  C748  1  0.771630  0.607670  0.626690  1.0  0.1334
  C  C749  1  0.886630  0.441870  0.518820  1.0  0.1625
  C  C750  1  0.838130  0.410570  0.532650  1.0  -0.1658
  C  C751  1  0.856630  0.401170  0.550460  1.0  -0.1089
  C  C752  1  0.923630  0.423170  0.554450  1.0  -0.126
  C  C753  1  0.972130  0.454470  0.540630  1.0  0.1242
  C  C754  1  0.207600  0.570600  0.927700  1.0  0.3578
  C  C755  1  0.325700  0.801300  0.914740  1.0  -0.1036
  C  C756  1  0.300600  0.768500  0.897430  1.0  0.2208
  C  C757  1  0.157300  0.578400  0.976760  1.0  0.0942
  C  C758  1  0.195900  0.589400  0.960730  1.0  -0.0946
  C  C759  1  0.166000  0.554300  0.944350  1.0  -0.018
  C  C760  1  0.491600  0.589200  0.943990  1.0  -0.139
  C  C761  1  0.502700  0.561700  0.960020  1.0  0.1322
  C  C762  1  0.221900  0.446700  0.852150  1.0  0.1558
  C  C763  1  0.239100  0.495200  0.865980  1.0  -0.1708
  C  C764  1  0.211200  0.476700  0.883790  1.0  -0.1057
  C  C765  1  0.166200  0.409700  0.887780  1.0  -0.1306
  C  C766  1  0.149000  0.361200  0.873960  1.0  0.1222
  C  C767  1  0.874270  0.903930  0.261030  1.0  0.3578
  C  C768  1  0.992370  0.134630  0.248070  1.0  -0.1036
  C  C769  1  0.967270  0.101830  0.230760  1.0  0.2208
  C  C770  1  0.823970  0.911730  0.310090  1.0  0.0942
  C  C771  1  0.862570  0.922730  0.294060  1.0  -0.0946
  C  C772  1  0.832670  0.887630  0.277680  1.0  -0.018
  C  C773  1  0.158270  0.922530  0.277320  1.0  -0.139
  C  C774  1  0.169370  0.895030  0.293350  1.0  0.1322
  C  C775  1  0.888570  0.780030  0.185480  1.0  0.1558
  C  C776  1  0.905770  0.828530  0.199310  1.0  -0.1708
  C  C777  1  0.877870  0.810030  0.217120  1.0  -0.1057
  C  C778  1  0.832870  0.743030  0.221110  1.0  -0.1306
  C  C779  1  0.815670  0.694530  0.207290  1.0  0.1222
  C  C780  1  0.540930  0.237270  0.594370  1.0  0.3578
  C  C781  1  0.659030  0.467970  0.581410  1.0  -0.1036
  C  C782  1  0.633930  0.435170  0.564100  1.0  0.2208
  C  C783  1  0.490630  0.245070  0.643430  1.0  0.0942
  C  C784  1  0.529230  0.256070  0.627400  1.0  -0.0946
  C  C785  1  0.499330  0.220970  0.611020  1.0  -0.018
  C  C786  1  0.824930  0.255870  0.610660  1.0  -0.139
  C  C787  1  0.836030  0.228370  0.626690  1.0  0.1323
  C  C788  1  0.555230  0.113370  0.518820  1.0  0.1558
  C  C789  1  0.572430  0.161870  0.532650  1.0  -0.1708
  C  C790  1  0.544530  0.143370  0.550460  1.0  -0.1057
  C  C791  1  0.499530  0.076370  0.554450  1.0  -0.1306
  C  C792  1  0.482330  0.027870  0.540630  1.0  0.1222
  C  C793  1  0.196400  0.616200  0.334510  1.0  0.206
  C  C794  1  0.356900  0.534400  0.320470  1.0  -0.1537
  C  C795  1  0.318900  0.543300  0.306740  1.0  0.2463
  C  C796  1  0.036400  0.519500  0.363690  1.0  0.1409
  C  C797  1  0.078900  0.550200  0.348530  1.0  -0.1244
  C  C798  1  0.147800  0.577500  0.350600  1.0  -0.0923
  C  C799  1  0.399700  0.825800  0.367830  1.0  -0.1328
  C  C800  1  0.411500  0.868300  0.382990  1.0  0.1167
  C  C801  1  0.125800  0.744100  0.278050  1.0  0.1298
  C  C802  1  0.144200  0.715600  0.292380  1.0  -0.1087
  C  C803  1  0.202000  0.711100  0.290710  1.0  -0.116
  C  C804  1  0.241500  0.735100  0.274690  1.0  -0.1254
  C  C805  1  0.223100  0.763700  0.260350  1.0  0.1342
  C  C806  1  0.863070  0.949530  0.667840  1.0  0.206
  C  C807  1  0.023570  0.867730  0.653800  1.0  -0.1535
  C  C808  1  0.985570  0.876630  0.640070  1.0  0.2463
  C  C809  1  0.703070  0.852830  0.697020  1.0  0.1409
  C  C810  1  0.745570  0.883530  0.681860  1.0  -0.1244
  C  C811  1  0.814470  0.910830  0.683930  1.0  -0.0923
  C  C812  1  0.066370  0.159130  0.701160  1.0  -0.1328
  C  C813  1  0.078170  0.201630  0.716320  1.0  0.1167
  C  C814  1  0.792470  0.077430  0.611380  1.0  0.13
  C  C815  1  0.810870  0.048930  0.625710  1.0  -0.1087
  C  C816  1  0.868670  0.044430  0.624040  1.0  -0.1161
  C  C817  1  0.908170  0.068430  0.608020  1.0  -0.1255
  C  C818  1  0.889770  0.097030  0.593680  1.0  0.1343
  C  C819  1  0.529730  0.282870  0.001180  1.0  0.206
  C  C820  1  0.690230  0.201070  0.987140  1.0  -0.1537
  C  C821  1  0.652230  0.209970  0.973410  1.0  0.2463
  C  C822  1  0.369730  0.186170  0.030360  1.0  0.1409
  C  C823  1  0.412230  0.216870  0.015200  1.0  -0.1244
  C  C824  1  0.481130  0.244170  0.017270  1.0  -0.0923
  C  C825  1  0.733030  0.492470  0.034500  1.0  -0.1328
  C  C826  1  0.744830  0.534970  0.049660  1.0  0.1167
  C  C827  1  0.459130  0.410770  0.944720  1.0  0.1298
  C  C828  1  0.477530  0.382270  0.959050  1.0  -0.1087
  C  C829  1  0.535330  0.377770  0.957380  1.0  -0.116
  C  C830  1  0.574830  0.401770  0.941360  1.0  -0.1254
  C  C831  1  0.556430  0.430370  0.927020  1.0  0.1342
  C  C832  1  0.383800  0.580200  0.334510  1.0  0.2072
  C  C833  1  0.465600  0.822500  0.320470  1.0  -0.1544
  C  C834  1  0.456700  0.775600  0.306740  1.0  0.2462
  C  C835  1  0.480500  0.516900  0.363690  1.0  0.1415
  C  C836  1  0.449800  0.528700  0.348530  1.0  -0.1288
  C  C837  1  0.422500  0.570300  0.350600  1.0  -0.0923
  C  C838  1  0.174200  0.573900  0.367830  1.0  -0.1315
  C  C839  1  0.131700  0.543200  0.382990  1.0  0.1166
  C  C840  1  0.255900  0.381700  0.278050  1.0  0.1242
  C  C841  1  0.284400  0.428600  0.292380  1.0  -0.1116
  C  C842  1  0.288900  0.490900  0.290710  1.0  -0.1126
  C  C843  1  0.264900  0.506400  0.274690  1.0  -0.1246
  C  C844  1  0.236300  0.459400  0.260350  1.0  0.132
  C  C845  1  0.050470  0.913530  0.667840  1.0  0.2072
  C  C846  1  0.132270  0.155830  0.653800  1.0  -0.1544
  C  C847  1  0.123370  0.108930  0.640070  1.0  0.2462
  C  C848  1  0.147170  0.850230  0.697020  1.0  0.1415
  C  C849  1  0.116470  0.862030  0.681860  1.0  -0.1288
  C  C850  1  0.089170  0.903630  0.683930  1.0  -0.0923
  C  C851  1  0.840870  0.907230  0.701160  1.0  -0.1315
  C  C852  1  0.798370  0.876530  0.716320  1.0  0.1166
  C  C853  1  0.922570  0.715030  0.611380  1.0  0.1243
  C  C854  1  0.951070  0.761930  0.625710  1.0  -0.1116
  C  C855  1  0.955570  0.824230  0.624040  1.0  -0.1126
  C  C856  1  0.931570  0.839730  0.608020  1.0  -0.1246
  C  C857  1  0.902970  0.792730  0.593680  1.0  0.1321
  C  C858  1  0.717130  0.246870  0.001180  1.0  0.2072
  C  C859  1  0.798930  0.489170  0.987140  1.0  -0.1544
  C  C860  1  0.790030  0.442270  0.973410  1.0  0.2462
  C  C861  1  0.813830  0.183570  0.030360  1.0  0.1415
  C  C862  1  0.783130  0.195370  0.015200  1.0  -0.129
  C  C863  1  0.755830  0.236970  0.017270  1.0  -0.0923
  C  C864  1  0.507530  0.240570  0.034500  1.0  -0.1315
  C  C865  1  0.465030  0.209870  0.049660  1.0  0.1166
  C  C866  1  0.589230  0.048370  0.944720  1.0  0.1242
  C  C867  1  0.617730  0.095270  0.959050  1.0  -0.1116
  C  C868  1  0.622230  0.157570  0.957380  1.0  -0.1126
  C  C869  1  0.598230  0.173070  0.941360  1.0  -0.1246
  C  C870  1  0.569630  0.126070  0.927020  1.0  0.132
  C  C871  1  0.419800  0.803600  0.334510  1.0  0.2058
  C  C872  1  0.177500  0.643100  0.320470  1.0  -0.1573
  C  C873  1  0.224400  0.681100  0.306740  1.0  0.2443
  C  C874  1  0.483100  0.963600  0.363690  1.0  0.1427
  C  C875  1  0.471300  0.921100  0.348530  1.0  -0.1298
  C  C876  1  0.429700  0.852200  0.350600  1.0  -0.0942
  C  C877  1  0.426100  0.600300  0.367830  1.0  -0.125
  C  C878  1  0.456800  0.588500  0.382990  1.0  0.1201
  C  C879  1  0.618300  0.874200  0.278050  1.0  0.1264
  C  C880  1  0.571400  0.855800  0.292380  1.0  -0.1143
  C  C881  1  0.509100  0.798000  0.290710  1.0  -0.1161
  C  C882  1  0.493600  0.758500  0.274690  1.0  -0.1204
  C  C883  1  0.540600  0.776900  0.260350  1.0  0.138
  C  C884  1  0.086470  0.136930  0.667840  1.0  0.2058
  C  C885  1  0.844170  0.976430  0.653800  1.0  -0.1573
  C  C886  1  0.891070  0.014430  0.640070  1.0  0.2443
  C  C887  1  0.149770  0.296930  0.697020  1.0  0.1427
  C  C888  1  0.137970  0.254430  0.681860  1.0  -0.1298
  C  C889  1  0.096370  0.185530  0.683930  1.0  -0.0942
  C  C890  1  0.092770  0.933630  0.701160  1.0  -0.125
  C  C891  1  0.123470  0.921830  0.716320  1.0  0.1201
  C  C892  1  0.284970  0.207530  0.611380  1.0  0.1263
  C  C893  1  0.238070  0.189130  0.625710  1.0  -0.1143
  C  C894  1  0.175770  0.131330  0.624040  1.0  -0.1161
  C  C895  1  0.160270  0.091830  0.608020  1.0  -0.1203
  C  C896  1  0.207270  0.110230  0.593680  1.0  0.1381
  C  C897  1  0.753130  0.470270  0.001180  1.0  0.2058
  C  C898  1  0.510830  0.309770  0.987140  1.0  -0.1573
  C  C899  1  0.557730  0.347770  0.973410  1.0  0.2443
  C  C900  1  0.816430  0.630270  0.030360  1.0  0.1427
  C  C901  1  0.804630  0.587770  0.015200  1.0  -0.1298
  C  C902  1  0.763030  0.518870  0.017270  1.0  -0.0942
  C  C903  1  0.759430  0.266970  0.034500  1.0  -0.125
  C  C904  1  0.790130  0.255170  0.049660  1.0  0.12
  C  C905  1  0.951630  0.540870  0.944720  1.0  0.1264
  C  C906  1  0.904730  0.522470  0.959050  1.0  -0.1143
  C  C907  1  0.842430  0.464670  0.957380  1.0  -0.1161
  C  C908  1  0.826930  0.425170  0.941360  1.0  -0.1204
  C  C909  1  0.873930  0.443570  0.927020  1.0  0.138
  C  C910  1  0.383800  0.803600  0.834510  1.0  0.2054
  C  C911  1  0.465600  0.643100  0.820470  1.0  -0.156
  C  C912  1  0.456700  0.681100  0.806740  1.0  0.2478
  C  C913  1  0.480500  0.963600  0.863690  1.0  0.1401
  C  C914  1  0.449800  0.921100  0.848530  1.0  -0.1281
  C  C915  1  0.422500  0.852200  0.850600  1.0  -0.0928
  C  C916  1  0.174200  0.600300  0.867830  1.0  -0.1275
  C  C917  1  0.131700  0.588500  0.882990  1.0  0.12
  C  C918  1  0.255900  0.874200  0.778050  1.0  0.1267
  C  C919  1  0.284400  0.855800  0.792380  1.0  -0.1122
  C  C920  1  0.288900  0.798000  0.790710  1.0  -0.1157
  C  C921  1  0.264900  0.758500  0.774690  1.0  -0.1221
  C  C922  1  0.236300  0.776900  0.760350  1.0  0.1373
  C  C923  1  0.050470  0.136930  0.167840  1.0  0.2054
  C  C924  1  0.132270  0.976430  0.153800  1.0  -0.1559
  C  C925  1  0.123370  0.014430  0.140070  1.0  0.2478
  C  C926  1  0.147170  0.296930  0.197020  1.0  0.1401
  C  C927  1  0.116470  0.254430  0.181860  1.0  -0.1281
  C  C928  1  0.089170  0.185530  0.183930  1.0  -0.0928
  C  C929  1  0.840870  0.933630  0.201160  1.0  -0.1275
  C  C930  1  0.798370  0.921830  0.216320  1.0  0.12
  C  C931  1  0.922570  0.207530  0.111380  1.0  0.1269
  C  C932  1  0.951070  0.189130  0.125710  1.0  -0.1122
  C  C933  1  0.955570  0.131330  0.124040  1.0  -0.1157
  C  C934  1  0.931570  0.091830  0.108020  1.0  -0.1222
  C  C935  1  0.902970  0.110230  0.093680  1.0  0.1373
  C  C936  1  0.717130  0.470270  0.501180  1.0  0.2054
  C  C937  1  0.798930  0.309770  0.487140  1.0  -0.156
  C  C938  1  0.790030  0.347770  0.473410  1.0  0.2478
  C  C939  1  0.813830  0.630270  0.530360  1.0  0.1401
  C  C940  1  0.783130  0.587770  0.515200  1.0  -0.1282
  C  C941  1  0.755830  0.518870  0.517270  1.0  -0.0928
  C  C942  1  0.507530  0.266970  0.534500  1.0  -0.1275
  C  C943  1  0.465030  0.255170  0.549660  1.0  0.12
  C  C944  1  0.589230  0.540870  0.444720  1.0  0.1267
  C  C945  1  0.617730  0.522470  0.459050  1.0  -0.1122
  C  C946  1  0.622230  0.464670  0.457380  1.0  -0.1157
  C  C947  1  0.598230  0.425170  0.441360  1.0  -0.1221
  C  C948  1  0.569630  0.443570  0.427020  1.0  0.1373
  C  C949  1  0.419800  0.616200  0.834510  1.0  0.2062
  C  C950  1  0.177500  0.534400  0.820470  1.0  -0.1535
  C  C951  1  0.224400  0.543300  0.806740  1.0  0.2458
  C  C952  1  0.483100  0.519500  0.863690  1.0  0.1414
  C  C953  1  0.471300  0.550200  0.848530  1.0  -0.1279
  C  C954  1  0.429700  0.577500  0.850600  1.0  -0.0923
  C  C955  1  0.426100  0.825800  0.867830  1.0  -0.1333
  C  C956  1  0.456800  0.868300  0.882990  1.0  0.1148
  C  C957  1  0.618300  0.744100  0.778050  1.0  0.1308
  C  C958  1  0.571400  0.715600  0.792380  1.0  -0.1102
  C  C959  1  0.509100  0.711100  0.790710  1.0  -0.1149
  C  C960  1  0.493600  0.735100  0.774690  1.0  -0.1241
  C  C961  1  0.540600  0.763700  0.760350  1.0  0.1352
  C  C962  1  0.086470  0.949530  0.167840  1.0  0.2062
  C  C963  1  0.844170  0.867730  0.153800  1.0  -0.1535
  C  C964  1  0.891070  0.876630  0.140070  1.0  0.2458
  C  C965  1  0.149770  0.852830  0.197020  1.0  0.1414
  C  C966  1  0.137970  0.883530  0.181860  1.0  -0.1279
  C  C967  1  0.096370  0.910830  0.183930  1.0  -0.0923
  C  C968  1  0.092770  0.159130  0.201160  1.0  -0.1333
  C  C969  1  0.123470  0.201630  0.216320  1.0  0.1148
  C  C970  1  0.284970  0.077430  0.111380  1.0  0.1308
  C  C971  1  0.238070  0.048930  0.125710  1.0  -0.1102
  C  C972  1  0.175770  0.044430  0.124040  1.0  -0.1149
  C  C973  1  0.160270  0.068430  0.108020  1.0  -0.1241
  C  C974  1  0.207270  0.097030  0.093680  1.0  0.1353
  C  C975  1  0.753130  0.282870  0.501180  1.0  0.2062
  C  C976  1  0.510830  0.201070  0.487140  1.0  -0.1535
  C  C977  1  0.557730  0.209970  0.473410  1.0  0.2458
  C  C978  1  0.816430  0.186170  0.530360  1.0  0.1414
  C  C979  1  0.804630  0.216870  0.515200  1.0  -0.128
  C  C980  1  0.763030  0.244170  0.517270  1.0  -0.0923
  C  C981  1  0.759430  0.492470  0.534500  1.0  -0.1333
  C  C982  1  0.790130  0.534970  0.549660  1.0  0.1148
  C  C983  1  0.951630  0.410770  0.444720  1.0  0.1308
  C  C984  1  0.904730  0.382270  0.459050  1.0  -0.1102
  C  C985  1  0.842430  0.377770  0.457380  1.0  -0.1149
  C  C986  1  0.826930  0.401770  0.441360  1.0  -0.1241
  C  C987  1  0.873930  0.430370  0.427020  1.0  0.1352
  C  C988  1  0.196400  0.580200  0.834510  1.0  0.2065
  C  C989  1  0.356900  0.822500  0.820470  1.0  -0.1596
  C  C990  1  0.318900  0.775600  0.806740  1.0  0.2466
  C  C991  1  0.036400  0.516900  0.863690  1.0  0.1435
  C  C992  1  0.078900  0.528700  0.848530  1.0  -0.1275
  C  C993  1  0.147800  0.570300  0.850600  1.0  -0.0938
  C  C994  1  0.399700  0.573900  0.867830  1.0  -0.1291
  C  C995  1  0.411500  0.543200  0.882990  1.0  0.1176
  C  C996  1  0.125800  0.381700  0.778050  1.0  0.1268
  C  C997  1  0.144200  0.428600  0.792380  1.0  -0.1103
  C  C998  1  0.202000  0.490900  0.790710  1.0  -0.1133
  C  C999  1  0.241500  0.506400  0.774690  1.0  -0.1261
  C  C1000  1  0.223100  0.459400  0.760350  1.0  0.133
  C  C1001  1  0.863070  0.913530  0.167840  1.0  0.2065
  C  C1002  1  0.023570  0.155830  0.153800  1.0  -0.1596
  C  C1003  1  0.985570  0.108930  0.140070  1.0  0.2466
  C  C1004  1  0.703070  0.850230  0.197020  1.0  0.1435
  C  C1005  1  0.745570  0.862030  0.181860  1.0  -0.1275
  C  C1006  1  0.814470  0.903630  0.183930  1.0  -0.0938
  C  C1007  1  0.066370  0.907230  0.201160  1.0  -0.1291
  C  C1008  1  0.078170  0.876530  0.216320  1.0  0.1176
  C  C1009  1  0.792470  0.715030  0.111380  1.0  0.1266
  C  C1010  1  0.810870  0.761930  0.125710  1.0  -0.1103
  C  C1011  1  0.868670  0.824230  0.124040  1.0  -0.1133
  C  C1012  1  0.908170  0.839730  0.108020  1.0  -0.126
  C  C1013  1  0.889770  0.792730  0.093680  1.0  0.1331
  C  C1014  1  0.529730  0.246870  0.501180  1.0  0.2065
  C  C1015  1  0.690230  0.489170  0.487140  1.0  -0.1596
  C  C1016  1  0.652230  0.442270  0.473410  1.0  0.2466
  C  C1017  1  0.369730  0.183570  0.530360  1.0  0.1435
  C  C1018  1  0.412230  0.195370  0.515200  1.0  -0.1274
  C  C1019  1  0.481130  0.236970  0.517270  1.0  -0.0938
  C  C1020  1  0.733030  0.240570  0.534500  1.0  -0.1291
  C  C1021  1  0.744830  0.209870  0.549660  1.0  0.1175
  C  C1022  1  0.459130  0.048370  0.444720  1.0  0.1268
  C  C1023  1  0.477530  0.095270  0.459050  1.0  -0.1103
  C  C1024  1  0.535330  0.157570  0.457380  1.0  -0.1133
  C  C1025  1  0.574830  0.173070  0.441360  1.0  -0.1261
  C  C1026  1  0.556430  0.126070  0.427020  1.0  0.133
  C  C1027  1  0.194200  0.626500  0.236560  1.0  0.1133
  C  C1028  1  0.349200  0.535500  0.220590  1.0  -0.1281
  C  C1029  1  0.306700  0.541100  0.208410  1.0  0.2148
  C  C1030  1  0.029100  0.556800  0.262810  1.0  0.1331
  C  C1031  1  0.080000  0.591200  0.249770  1.0  -0.1366
  C  C1032  1  0.142000  0.595300  0.252120  1.0  -0.0975
  C  C1033  1  0.411800  0.846900  0.267500  1.0  -0.0858
  C  C1034  1  0.428300  0.897800  0.280530  1.0  0.1512
  C  C1035  1  0.144400  0.716000  0.168070  1.0  0.1375
  C  C1036  1  0.157500  0.688900  0.183850  1.0  -0.1571
  C  C1037  1  0.222100  0.719000  0.191220  1.0  -0.0432
  C  C1038  1  0.273600  0.776200  0.182810  1.0  -0.0563
  C  C1039  1  0.260500  0.803300  0.167040  1.0  0.1217
  C  C1040  1  0.860870  0.959830  0.569890  1.0  0.1133
  C  C1041  1  0.015870  0.868830  0.553920  1.0  -0.1281
  C  C1042  1  0.973370  0.874430  0.541740  1.0  0.2148
  C  C1043  1  0.695770  0.890130  0.596140  1.0  0.1331
  C  C1044  1  0.746670  0.924530  0.583100  1.0  -0.1366
  C  C1045  1  0.808670  0.928630  0.585450  1.0  -0.0975
  C  C1046  1  0.078470  0.180230  0.600830  1.0  -0.0858
  C  C1047  1  0.094970  0.231130  0.613860  1.0  0.1512
  C  C1048  1  0.811070  0.049330  0.501400  1.0  0.1375
  C  C1049  1  0.824170  0.022230  0.517180  1.0  -0.1571
  C  C1050  1  0.888770  0.052330  0.524550  1.0  -0.0432
  C  C1051  1  0.940270  0.109530  0.516140  1.0  -0.0563
  C  C1052  1  0.927170  0.136630  0.500370  1.0  0.1221
  C  C1053  1  0.527530  0.293170  0.903230  1.0  0.1133
  C  C1054  1  0.682530  0.202170  0.887260  1.0  -0.1281
  C  C1055  1  0.640030  0.207770  0.875080  1.0  0.2148
  C  C1056  1  0.362430  0.223470  0.929480  1.0  0.1331
  C  C1057  1  0.413330  0.257870  0.916440  1.0  -0.1366
  C  C1058  1  0.475330  0.261970  0.918790  1.0  -0.0975
  C  C1059  1  0.745130  0.513570  0.934170  1.0  -0.0858
  C  C1060  1  0.761630  0.564470  0.947200  1.0  0.1512
  C  C1061  1  0.477730  0.382670  0.834740  1.0  0.1375
  C  C1062  1  0.490830  0.355570  0.850520  1.0  -0.1571
  C  C1063  1  0.555430  0.385670  0.857890  1.0  -0.0432
  C  C1064  1  0.606930  0.442870  0.849480  1.0  -0.0563
  C  C1065  1  0.593830  0.469970  0.833710  1.0  0.1217
  C  C1066  1  0.373500  0.567700  0.236560  1.0  0.111
  C  C1067  1  0.464500  0.813700  0.220590  1.0  -0.1286
  C  C1068  1  0.458900  0.765600  0.208410  1.0  0.2147
  C  C1069  1  0.443200  0.472300  0.262810  1.0  0.1295
  C  C1070  1  0.408800  0.488800  0.249770  1.0  -0.1383
  C  C1071  1  0.404700  0.546700  0.252120  1.0  -0.0988
  C  C1072  1  0.153100  0.564900  0.267500  1.0  -0.0841
  C  C1073  1  0.102200  0.530500  0.280530  1.0  0.1511
  C  C1074  1  0.284000  0.428400  0.168070  1.0  0.1364
  C  C1075  1  0.311100  0.468600  0.183850  1.0  -0.1502
  C  C1076  1  0.281000  0.503100  0.191220  1.0  -0.0427
  C  C1077  1  0.223800  0.497400  0.182810  1.0  -0.0564
  C  C1078  1  0.196700  0.457200  0.167040  1.0  0.1201
  C  C1079  1  0.040170  0.901030  0.569890  1.0  0.111
  C  C1080  1  0.131170  0.147030  0.553920  1.0  -0.1286
  C  C1081  1  0.125570  0.098930  0.541740  1.0  0.2147
  C  C1082  1  0.109870  0.805630  0.596140  1.0  0.1295
  C  C1083  1  0.075470  0.822130  0.583100  1.0  -0.1383
  C  C1084  1  0.071370  0.880030  0.585450  1.0  -0.0988
  C  C1085  1  0.819770  0.898230  0.600830  1.0  -0.0841
  C  C1086  1  0.768870  0.863830  0.613860  1.0  0.1511
  C  C1087  1  0.950670  0.761730  0.501400  1.0  0.1364
  C  C1088  1  0.977770  0.801930  0.517180  1.0  -0.1502
  C  C1089  1  0.947670  0.836430  0.524550  1.0  -0.0427
  C  C1090  1  0.890470  0.830730  0.516140  1.0  -0.0564
  C  C1091  1  0.863370  0.790530  0.500370  1.0  0.1201
  C  C1092  1  0.706830  0.234370  0.903230  1.0  0.111
  C  C1093  1  0.797830  0.480370  0.887260  1.0  -0.1286
  C  C1094  1  0.792230  0.432270  0.875080  1.0  0.2148
  C  C1095  1  0.776530  0.138970  0.929480  1.0  0.1295
  C  C1096  1  0.742130  0.155470  0.916440  1.0  -0.1383
  C  C1097  1  0.738030  0.213370  0.918790  1.0  -0.0988
  C  C1098  1  0.486430  0.231570  0.934170  1.0  -0.0841
  C  C1099  1  0.435530  0.197170  0.947200  1.0  0.1511
  C  C1100  1  0.617330  0.095070  0.834740  1.0  0.1365
  C  C1101  1  0.644430  0.135270  0.850520  1.0  -0.1502
  C  C1102  1  0.614330  0.169770  0.857890  1.0  -0.0427
  C  C1103  1  0.557130  0.164070  0.849480  1.0  -0.0564
  C  C1104  1  0.530030  0.123870  0.833710  1.0  0.1201
  C  C1105  1  0.432300  0.805800  0.236560  1.0  0.1121
  C  C1106  1  0.186300  0.650800  0.220590  1.0  -0.1288
  C  C1107  1  0.234400  0.693300  0.208410  1.0  0.2141
  C  C1108  1  0.527700  0.970900  0.262810  1.0  0.1318
  C  C1109  1  0.511200  0.920000  0.249770  1.0  -0.1404
  C  C1110  1  0.453300  0.858000  0.252120  1.0  -0.0986
  C  C1111  1  0.435100  0.588200  0.267500  1.0  -0.0793
  C  C1112  1  0.469500  0.571700  0.280530  1.0  0.1556
  C  C1113  1  0.571600  0.855600  0.168070  1.0  0.1377
  C  C1114  1  0.531400  0.842500  0.183850  1.0  -0.1558
  C  C1115  1  0.496900  0.777900  0.191220  1.0  -0.0432
  C  C1116  1  0.502600  0.726400  0.182810  1.0  -0.0553
  C  C1117  1  0.542800  0.739500  0.167040  1.0  0.1177
  C  C1118  1  0.098970  0.139130  0.569890  1.0  0.1121
  C  C1119  1  0.852970  0.984130  0.553920  1.0  -0.1287
  C  C1120  1  0.901070  0.026630  0.541740  1.0  0.2144
  C  C1121  1  0.194370  0.304230  0.596140  1.0  0.1318
  C  C1122  1  0.177870  0.253330  0.583100  1.0  -0.1405
  C  C1123  1  0.119970  0.191330  0.585450  1.0  -0.0986
  C  C1124  1  0.101770  0.921530  0.600830  1.0  -0.0793
  C  C1125  1  0.136170  0.905030  0.613860  1.0  0.1556
  C  C1126  1  0.238270  0.188930  0.501400  1.0  0.1377
  C  C1127  1  0.198070  0.175830  0.517180  1.0  -0.1558
  C  C1128  1  0.163570  0.111230  0.524550  1.0  -0.0432
  C  C1129  1  0.169270  0.059730  0.516140  1.0  -0.0553
  C  C1130  1  0.209470  0.072830  0.500370  1.0  0.1177
  C  C1131  1  0.765630  0.472470  0.903230  1.0  0.1121
  C  C1132  1  0.519630  0.317470  0.887260  1.0  -0.1288
  C  C1133  1  0.567730  0.359970  0.875080  1.0  0.2141
  C  C1134  1  0.861030  0.637570  0.929480  1.0  0.1318
  C  C1135  1  0.844530  0.586670  0.916440  1.0  -0.1404
  C  C1136  1  0.786630  0.524670  0.918790  1.0  -0.0986
  C  C1137  1  0.768430  0.254870  0.934170  1.0  -0.0793
  C  C1138  1  0.802830  0.238370  0.947200  1.0  0.1556
  C  C1139  1  0.904930  0.522270  0.834740  1.0  0.1377
  C  C1140  1  0.864730  0.509170  0.850520  1.0  -0.1558
  C  C1141  1  0.830230  0.444570  0.857890  1.0  -0.0432
  C  C1142  1  0.835930  0.393070  0.849480  1.0  -0.0553
  C  C1143  1  0.876130  0.406170  0.833710  1.0  0.1177
  C  C1144  1  0.373500  0.805800  0.736560  1.0  0.1116
  C  C1145  1  0.464500  0.650800  0.720590  1.0  -0.1275
  C  C1146  1  0.458900  0.693300  0.708410  1.0  0.2146
  C  C1147  1  0.443200  0.970900  0.762810  1.0  0.1317
  C  C1148  1  0.408800  0.920000  0.749770  1.0  -0.1378
  C  C1149  1  0.404700  0.858000  0.752120  1.0  -0.0964
  C  C1150  1  0.153100  0.588200  0.767500  1.0  -0.081
  C  C1151  1  0.102200  0.571700  0.780530  1.0  0.1546
  C  C1152  1  0.284000  0.855600  0.668070  1.0  0.138
  C  C1153  1  0.311100  0.842500  0.683850  1.0  -0.1592
  C  C1154  1  0.281000  0.777900  0.691220  1.0  -0.0436
  C  C1155  1  0.223800  0.726400  0.682810  1.0  -0.0549
  C  C1156  1  0.196700  0.739500  0.667040  1.0  0.1201
  C  C1157  1  0.040170  0.139130  0.069890  1.0  0.1116
  C  C1158  1  0.131170  0.984130  0.053920  1.0  -0.1275
  C  C1159  1  0.125570  0.026630  0.041740  1.0  0.2146
  C  C1160  1  0.109870  0.304230  0.096140  1.0  0.1317
  C  C1161  1  0.075470  0.253330  0.083100  1.0  -0.1378
  C  C1162  1  0.071370  0.191330  0.085450  1.0  -0.0964
  C  C1163  1  0.819770  0.921530  0.100830  1.0  -0.081
  C  C1164  1  0.768870  0.905030  0.113860  1.0  0.1546
  C  C1165  1  0.950670  0.188930  0.001400  1.0  0.138
  C  C1166  1  0.977770  0.175830  0.017180  1.0  -0.1592
  C  C1167  1  0.947670  0.111230  0.024550  1.0  -0.0436
  C  C1168  1  0.890470  0.059730  0.016140  1.0  -0.0549
  C  C1169  1  0.863370  0.072830  0.000370  1.0  0.1204
  C  C1170  1  0.706830  0.472470  0.403230  1.0  0.1116
  C  C1171  1  0.797830  0.317470  0.387260  1.0  -0.1275
  C  C1172  1  0.792230  0.359970  0.375080  1.0  0.2146
  C  C1173  1  0.776530  0.637570  0.429480  1.0  0.1317
  C  C1174  1  0.742130  0.586670  0.416440  1.0  -0.1378
  C  C1175  1  0.738030  0.524670  0.418790  1.0  -0.0964
  C  C1176  1  0.486430  0.254870  0.434170  1.0  -0.081
  C  C1177  1  0.435530  0.238370  0.447200  1.0  0.1546
  C  C1178  1  0.617330  0.522270  0.334740  1.0  0.138
  C  C1179  1  0.644430  0.509170  0.350520  1.0  -0.1592
  C  C1180  1  0.614330  0.444570  0.357890  1.0  -0.0436
  C  C1181  1  0.557130  0.393070  0.349480  1.0  -0.0549
  C  C1182  1  0.530030  0.406170  0.333710  1.0  0.1201
  C  C1183  1  0.432300  0.626500  0.736560  1.0  0.1113
  C  C1184  1  0.186300  0.535500  0.720590  1.0  -0.1286
  C  C1185  1  0.234400  0.541100  0.708410  1.0  0.2162
  C  C1186  1  0.527700  0.556800  0.762810  1.0  0.1297
  C  C1187  1  0.511200  0.591200  0.749770  1.0  -0.137
  C  C1188  1  0.453300  0.595300  0.752120  1.0  -0.0966
  C  C1189  1  0.435100  0.846900  0.767500  1.0  -0.0838
  C  C1190  1  0.469500  0.897800  0.780530  1.0  0.1528
  C  C1191  1  0.571600  0.716000  0.668070  1.0  0.1361
  C  C1192  1  0.531400  0.688900  0.683850  1.0  -0.1552
  C  C1193  1  0.496900  0.719000  0.691220  1.0  -0.0434
  C  C1194  1  0.502600  0.776200  0.682810  1.0  -0.0559
  C  C1195  1  0.542800  0.803300  0.667040  1.0  0.1223
  C  C1196  1  0.098970  0.959830  0.069890  1.0  0.1113
  C  C1197  1  0.852970  0.868830  0.053920  1.0  -0.1286
  C  C1198  1  0.901070  0.874430  0.041740  1.0  0.2162
  C  C1199  1  0.194370  0.890130  0.096140  1.0  0.1297
  C  C1200  1  0.177870  0.924530  0.083100  1.0  -0.137
  C  C1201  1  0.119970  0.928630  0.085450  1.0  -0.0966
  C  C1202  1  0.101770  0.180230  0.100830  1.0  -0.0838
  C  C1203  1  0.136170  0.231130  0.113860  1.0  0.1528
  C  C1204  1  0.238270  0.049330  0.001400  1.0  0.1361
  C  C1205  1  0.198070  0.022230  0.017180  1.0  -0.1552
  C  C1206  1  0.163570  0.052330  0.024550  1.0  -0.0433
  C  C1207  1  0.169270  0.109530  0.016140  1.0  -0.0559
  C  C1208  1  0.209470  0.136630  0.000370  1.0  0.1223
  C  C1209  1  0.765630  0.293170  0.403230  1.0  0.1113
  C  C1210  1  0.519630  0.202170  0.387260  1.0  -0.1286
  C  C1211  1  0.567730  0.207770  0.375080  1.0  0.2163
  C  C1212  1  0.861030  0.223470  0.429480  1.0  0.1297
  C  C1213  1  0.844530  0.257870  0.416440  1.0  -0.137
  C  C1214  1  0.786630  0.261970  0.418790  1.0  -0.0966
  C  C1215  1  0.768430  0.513570  0.434170  1.0  -0.0838
  C  C1216  1  0.802830  0.564470  0.447200  1.0  0.1528
  C  C1217  1  0.904930  0.382670  0.334740  1.0  0.1361
  C  C1218  1  0.864730  0.355570  0.350520  1.0  -0.1552
  C  C1219  1  0.830230  0.385670  0.357890  1.0  -0.0434
  C  C1220  1  0.835930  0.442870  0.349480  1.0  -0.0559
  C  C1221  1  0.876130  0.469970  0.333710  1.0  0.1223
  C  C1222  1  0.194200  0.567700  0.736560  1.0  0.1116
  C  C1223  1  0.349200  0.813700  0.720590  1.0  -0.1294
  C  C1224  1  0.306700  0.765600  0.708410  1.0  0.215
  C  C1225  1  0.029100  0.472300  0.762810  1.0  0.1308
  C  C1226  1  0.080000  0.488800  0.749770  1.0  -0.1393
  C  C1227  1  0.142000  0.546700  0.752120  1.0  -0.1001
  C  C1228  1  0.411800  0.564900  0.767500  1.0  -0.0847
  C  C1229  1  0.428300  0.530500  0.780530  1.0  0.153
  C  C1230  1  0.144400  0.428400  0.668070  1.0  0.1365
  C  C1231  1  0.157500  0.468600  0.683850  1.0  -0.1512
  C  C1232  1  0.222100  0.503100  0.691220  1.0  -0.0428
  C  C1233  1  0.273600  0.497400  0.682810  1.0  -0.056
  C  C1234  1  0.260500  0.457200  0.667040  1.0  0.1204
  C  C1235  1  0.860870  0.901030  0.069890  1.0  0.1117
  C  C1236  1  0.015870  0.147030  0.053920  1.0  -0.1293
  C  C1237  1  0.973370  0.098930  0.041740  1.0  0.2151
  C  C1238  1  0.695770  0.805630  0.096140  1.0  0.1309
  C  C1239  1  0.746670  0.822130  0.083100  1.0  -0.1392
  C  C1240  1  0.808670  0.880030  0.085450  1.0  -0.1001
  C  C1241  1  0.078470  0.898230  0.100830  1.0  -0.0847
  C  C1242  1  0.094970  0.863830  0.113860  1.0  0.153
  C  C1243  1  0.811070  0.761730  0.001400  1.0  0.1365
  C  C1244  1  0.824170  0.801930  0.017180  1.0  -0.1512
  C  C1245  1  0.888770  0.836430  0.024550  1.0  -0.0428
  C  C1246  1  0.940270  0.830730  0.016140  1.0  -0.056
  C  C1247  1  0.927170  0.790530  0.000370  1.0  0.1204
  C  C1248  1  0.527530  0.234370  0.403230  1.0  0.1116
  C  C1249  1  0.682530  0.480370  0.387260  1.0  -0.1294
  C  C1250  1  0.640030  0.432270  0.375080  1.0  0.215
  C  C1251  1  0.362430  0.138970  0.429480  1.0  0.1309
  C  C1252  1  0.413330  0.155470  0.416440  1.0  -0.1393
  C  C1253  1  0.475330  0.213370  0.418790  1.0  -0.1001
  C  C1254  1  0.745130  0.231570  0.434170  1.0  -0.0847
  C  C1255  1  0.761630  0.197170  0.447200  1.0  0.153
  C  C1256  1  0.477730  0.095070  0.334740  1.0  0.1365
  C  C1257  1  0.490830  0.135270  0.350520  1.0  -0.1512
  C  C1258  1  0.555430  0.169770  0.357890  1.0  -0.0428
  C  C1259  1  0.606930  0.164070  0.349480  1.0  -0.056
  C  C1260  1  0.593830  0.123870  0.333710  1.0  0.1204
  N  N1261  1  0.088900  0.556600  0.476410  1.0  -0.3452
  N  N1262  1  0.176900  0.797200  0.356140  1.0  -0.3188
  N  N1263  1  0.755570  0.889930  0.809740  1.0  -0.3452
  N  N1264  1  0.843570  0.130530  0.689470  1.0  -0.3188
  N  N1265  1  0.422230  0.223270  0.143080  1.0  -0.3452
  N  N1266  1  0.510230  0.463870  0.022810  1.0  -0.3188
  N  N1267  1  0.443400  0.532300  0.476410  1.0  -0.3439
  N  N1268  1  0.202800  0.379700  0.356140  1.0  -0.3181
  N  N1269  1  0.110070  0.865630  0.809740  1.0  -0.3439
  N  N1270  1  0.869470  0.713030  0.689470  1.0  -0.3181
  N  N1271  1  0.776730  0.198970  0.143080  1.0  -0.3439
  N  N1272  1  0.536130  0.046370  0.022810  1.0  -0.3181
  N  N1273  1  0.467700  0.911100  0.476410  1.0  -0.3472
  N  N1274  1  0.620300  0.823100  0.356140  1.0  -0.3213
  N  N1275  1  0.134370  0.244430  0.809740  1.0  -0.3472
  N  N1276  1  0.286970  0.156430  0.689470  1.0  -0.3213
  N  N1277  1  0.801030  0.577770  0.143080  1.0  -0.3472
  N  N1278  1  0.953630  0.489770  0.022810  1.0  -0.3214
  N  N1279  1  0.443400  0.911100  0.976410  1.0  -0.3468
  N  N1280  1  0.202800  0.823100  0.856140  1.0  -0.3204
  N  N1281  1  0.110070  0.244430  0.309740  1.0  -0.3468
  N  N1282  1  0.869470  0.156430  0.189470  1.0  -0.3204
  N  N1283  1  0.776730  0.577770  0.643080  1.0  -0.3468
  N  N1284  1  0.536130  0.489770  0.522810  1.0  -0.3204
  N  N1285  1  0.467700  0.556600  0.976410  1.0  -0.3438
  N  N1286  1  0.620300  0.797200  0.856140  1.0  -0.3199
  N  N1287  1  0.134370  0.889930  0.309740  1.0  -0.3438
  N  N1288  1  0.286970  0.130530  0.189470  1.0  -0.3199
  N  N1289  1  0.801030  0.223270  0.643080  1.0  -0.3438
  N  N1290  1  0.953630  0.463870  0.522810  1.0  -0.3199
  N  N1291  1  0.088900  0.532300  0.976410  1.0  -0.3463
  N  N1292  1  0.176900  0.379700  0.856140  1.0  -0.3174
  N  N1293  1  0.755570  0.865630  0.309740  1.0  -0.3463
  N  N1294  1  0.843570  0.713030  0.189470  1.0  -0.3174
  N  N1295  1  0.422230  0.198970  0.643080  1.0  -0.3463
  N  N1296  1  0.510230  0.046370  0.522810  1.0  -0.3175
  N  N1297  1  0.062800  0.516000  0.380920  1.0  -0.321
  N  N1298  1  0.165300  0.768200  0.262030  1.0  -0.3302
  N  N1299  1  0.729470  0.849330  0.714250  1.0  -0.321
  N  N1300  1  0.831970  0.101530  0.595360  1.0  -0.3302
  N  N1301  1  0.396130  0.182670  0.047590  1.0  -0.321
  N  N1302  1  0.498630  0.434870  0.928700  1.0  -0.3302
  N  N1303  1  0.484000  0.546800  0.380920  1.0  -0.3235
  N  N1304  1  0.231800  0.397100  0.262030  1.0  -0.3346
  N  N1305  1  0.150670  0.880130  0.714250  1.0  -0.3235
  N  N1306  1  0.898470  0.730430  0.595360  1.0  -0.3346
  N  N1307  1  0.817330  0.213470  0.047590  1.0  -0.3236
  N  N1308  1  0.565130  0.063770  0.928700  1.0  -0.3346
  N  N1309  1  0.453200  0.937200  0.380920  1.0  -0.3244
  N  N1310  1  0.602900  0.834700  0.262030  1.0  -0.3328
  N  N1311  1  0.119870  0.270530  0.714250  1.0  -0.3244
  N  N1312  1  0.269570  0.168030  0.595360  1.0  -0.3328
  N  N1313  1  0.786530  0.603870  0.047590  1.0  -0.3244
  N  N1314  1  0.936230  0.501370  0.928700  1.0  -0.3328
  N  N1315  1  0.484000  0.937200  0.880920  1.0  -0.3256
  N  N1316  1  0.231800  0.834700  0.762030  1.0  -0.3341
  N  N1317  1  0.150670  0.270530  0.214250  1.0  -0.3256
  N  N1318  1  0.898470  0.168030  0.095360  1.0  -0.3341
  N  N1319  1  0.817330  0.603870  0.547590  1.0  -0.3256
  N  N1320  1  0.565130  0.501370  0.428700  1.0  -0.3341
  N  N1321  1  0.453200  0.516000  0.880920  1.0  -0.3213
  N  N1322  1  0.602900  0.768200  0.762030  1.0  -0.3299
  N  N1323  1  0.119870  0.849330  0.214250  1.0  -0.3213
  N  N1324  1  0.269570  0.101530  0.095360  1.0  -0.3299
  N  N1325  1  0.786530  0.182670  0.547590  1.0  -0.3214
  N  N1326  1  0.936230  0.434870  0.428700  1.0  -0.3299
  N  N1327  1  0.062800  0.546800  0.880920  1.0  -0.3235
  N  N1328  1  0.165300  0.397100  0.762030  1.0  -0.3335
  N  N1329  1  0.729470  0.880130  0.214250  1.0  -0.3235
  N  N1330  1  0.831970  0.730430  0.095360  1.0  -0.3335
  N  N1331  1  0.396130  0.213470  0.547590  1.0  -0.3235
  N  N1332  1  0.498630  0.063770  0.428700  1.0  -0.3335
  N  N1333  1  0.040300  0.526500  0.278190  1.0  -0.3413
  N  N1334  1  0.195900  0.773200  0.159670  1.0  -0.3647
  N  N1335  1  0.706970  0.859830  0.611520  1.0  -0.3413
  N  N1336  1  0.862570  0.106530  0.493000  1.0  -0.3648
  N  N1337  1  0.373630  0.193170  0.944860  1.0  -0.3413
  N  N1338  1  0.529230  0.439870  0.826340  1.0  -0.3647
  N  N1339  1  0.473500  0.513800  0.278190  1.0  -0.3429
  N  N1340  1  0.226800  0.422700  0.159670  1.0  -0.3668
  N  N1341  1  0.140170  0.847130  0.611520  1.0  -0.3429
  N  N1342  1  0.893470  0.756030  0.493000  1.0  -0.3672
  N  N1343  1  0.806830  0.180470  0.944860  1.0  -0.3429
  N  N1344  1  0.560130  0.089370  0.826340  1.0  -0.3668
  N  N1345  1  0.486200  0.959700  0.278190  1.0  -0.336
  N  N1346  1  0.577300  0.804100  0.159670  1.0  -0.3635
  N  N1347  1  0.152870  0.293030  0.611520  1.0  -0.336
  N  N1348  1  0.243970  0.137430  0.493000  1.0  -0.3636
  N  N1349  1  0.819530  0.626370  0.944860  1.0  -0.336
  N  N1350  1  0.910630  0.470770  0.826340  1.0  -0.3635
  N  N1351  1  0.473500  0.959700  0.778190  1.0  -0.3387
  N  N1352  1  0.226800  0.804100  0.659670  1.0  -0.3647
  N  N1353  1  0.140170  0.293030  0.111520  1.0  -0.3387
  N  N1354  1  0.893470  0.137430  0.993000  1.0  -0.3647
  N  N1355  1  0.806830  0.626370  0.444860  1.0  -0.3387
  N  N1356  1  0.560130  0.470770  0.326340  1.0  -0.3647
  N  N1357  1  0.486200  0.526500  0.778190  1.0  -0.3386
  N  N1358  1  0.577300  0.773200  0.659670  1.0  -0.3643
  N  N1359  1  0.152870  0.859830  0.111520  1.0  -0.3386
  N  N1360  1  0.243970  0.106530  0.993000  1.0  -0.3647
  N  N1361  1  0.819530  0.193170  0.444860  1.0  -0.3386
  N  N1362  1  0.910630  0.439870  0.326340  1.0  -0.3643
  N  N1363  1  0.040300  0.513800  0.778190  1.0  -0.3426
  N  N1364  1  0.195900  0.422700  0.659670  1.0  -0.3668
  N  N1365  1  0.706970  0.847130  0.111520  1.0  -0.3426
  N  N1366  1  0.862570  0.756030  0.993000  1.0  -0.3669
  N  N1367  1  0.373630  0.180470  0.444860  1.0  -0.3426
  N  N1368  1  0.529230  0.089370  0.326340  1.0  -0.3668
  O  O1369  1  0.255500  0.623100  0.426510  1.0  -0.5909
  O  O1370  1  0.299000  0.585900  0.394050  1.0  -0.6021
  O  O1371  1  0.922170  0.956430  0.759840  1.0  -0.5909
  O  O1372  1  0.965670  0.919230  0.727380  1.0  -0.6021
  O  O1373  1  0.588830  0.289770  0.093180  1.0  -0.5909
  O  O1374  1  0.632330  0.252570  0.060720  1.0  -0.6021
  O  O1375  1  0.376900  0.632400  0.426510  1.0  -0.5931
  O  O1376  1  0.414100  0.713100  0.394050  1.0  -0.6023
  O  O1377  1  0.043570  0.965730  0.759840  1.0  -0.5931
  O  O1378  1  0.080770  0.046430  0.727380  1.0  -0.6023
  O  O1379  1  0.710230  0.299070  0.093180  1.0  -0.5931
  O  O1380  1  0.747430  0.379770  0.060720  1.0  -0.6023
  O  O1381  1  0.367600  0.744500  0.426510  1.0  -0.5914
  O  O1382  1  0.286900  0.701000  0.394050  1.0  -0.6022
  O  O1383  1  0.034270  0.077830  0.759840  1.0  -0.5914
  O  O1384  1  0.953570  0.034330  0.727380  1.0  -0.6022
  O  O1385  1  0.700930  0.411170  0.093180  1.0  -0.5914
  O  O1386  1  0.620230  0.367670  0.060720  1.0  -0.6022
  O  O1387  1  0.376900  0.744500  0.926510  1.0  -0.591
  O  O1388  1  0.414100  0.701000  0.894050  1.0  -0.6008
  O  O1389  1  0.043570  0.077830  0.259840  1.0  -0.591
  O  O1390  1  0.080770  0.034330  0.227380  1.0  -0.6008
  O  O1391  1  0.710230  0.411170  0.593180  1.0  -0.591
  O  O1392  1  0.747430  0.367670  0.560720  1.0  -0.6008
  O  O1393  1  0.367600  0.623100  0.926510  1.0  -0.592
  O  O1394  1  0.286900  0.585900  0.894050  1.0  -0.602
  O  O1395  1  0.034270  0.956430  0.259840  1.0  -0.592
  O  O1396  1  0.953570  0.919230  0.227380  1.0  -0.602
  O  O1397  1  0.700930  0.289770  0.593180  1.0  -0.592
  O  O1398  1  0.620230  0.252570  0.560720  1.0  -0.602
  O  O1399  1  0.255500  0.632400  0.926510  1.0  -0.5929
  O  O1400  1  0.299000  0.713100  0.894050  1.0  -0.6032
  O  O1401  1  0.922170  0.965730  0.259840  1.0  -0.5929
  O  O1402  1  0.965670  0.046430  0.227380  1.0  -0.6032
  O  O1403  1  0.588830  0.299070  0.593180  1.0  -0.5929
  O  O1404  1  0.632330  0.379770  0.560720  1.0  -0.6032
  O  O1405  1  0.255700  0.622700  0.337720  1.0  -0.5892
  O  O1406  1  0.303100  0.588600  0.304820  1.0  -0.5887
  O  O1407  1  0.922370  0.956030  0.671050  1.0  -0.5892
  O  O1408  1  0.969770  0.921930  0.638150  1.0  -0.5887
  O  O1409  1  0.589030  0.289370  0.004390  1.0  -0.5892
  O  O1410  1  0.636430  0.255270  0.971490  1.0  -0.5887
  O  O1411  1  0.377300  0.633000  0.337720  1.0  -0.5892
  O  O1412  1  0.411400  0.714500  0.304820  1.0  -0.5879
  O  O1413  1  0.043970  0.966330  0.671050  1.0  -0.5892
  O  O1414  1  0.078070  0.047830  0.638150  1.0  -0.5879
  O  O1415  1  0.710630  0.299670  0.004390  1.0  -0.5892
  O  O1416  1  0.744730  0.381170  0.971490  1.0  -0.5879
  O  O1417  1  0.367000  0.744300  0.337720  1.0  -0.5885
  O  O1418  1  0.285500  0.696900  0.304820  1.0  -0.5881
  O  O1419  1  0.033670  0.077630  0.671050  1.0  -0.5885
  O  O1420  1  0.952170  0.030230  0.638150  1.0  -0.5881
  O  O1421  1  0.700330  0.410970  0.004390  1.0  -0.5885
  O  O1422  1  0.618830  0.363570  0.971490  1.0  -0.5881
  O  O1423  1  0.377300  0.744300  0.837720  1.0  -0.5885
  O  O1424  1  0.411400  0.696900  0.804820  1.0  -0.5881
  O  O1425  1  0.043970  0.077630  0.171050  1.0  -0.5885
  O  O1426  1  0.078070  0.030230  0.138150  1.0  -0.5881
  O  O1427  1  0.710630  0.410970  0.504390  1.0  -0.5885
  O  O1428  1  0.744730  0.363570  0.471490  1.0  -0.5881
  O  O1429  1  0.367000  0.622700  0.837720  1.0  -0.589
  O  O1430  1  0.285500  0.588600  0.804820  1.0  -0.5877
  O  O1431  1  0.033670  0.956030  0.171050  1.0  -0.589
  O  O1432  1  0.952170  0.921930  0.138150  1.0  -0.5877
  O  O1433  1  0.700330  0.289370  0.504390  1.0  -0.589
  O  O1434  1  0.618830  0.255270  0.471490  1.0  -0.5877
  O  O1435  1  0.255700  0.633000  0.837720  1.0  -0.5895
  O  O1436  1  0.303100  0.714500  0.804820  1.0  -0.5893
  O  O1437  1  0.922370  0.966330  0.171050  1.0  -0.5895
  O  O1438  1  0.969770  0.047830  0.138150  1.0  -0.5893
  O  O1439  1  0.589030  0.299670  0.504390  1.0  -0.5895
  O  O1440  1  0.636430  0.381170  0.471490  1.0  -0.5893
  O  O1441  1  0.257800  0.633300  0.243250  1.0  -0.758
  O  O1442  1  0.292300  0.589500  0.210070  1.0  -0.5983
  O  O1443  1  0.924470  0.966630  0.576580  1.0  -0.7618
  O  O1444  1  0.958970  0.922830  0.543400  1.0  -0.5983
  O  O1445  1  0.591130  0.299970  0.909920  1.0  -0.758
  O  O1446  1  0.625630  0.256170  0.876740  1.0  -0.5983
  O  O1447  1  0.366700  0.624500  0.243250  1.0  -0.7564
  O  O1448  1  0.410500  0.702800  0.210070  1.0  -0.5977
  O  O1449  1  0.033370  0.957830  0.576580  1.0  -0.7564
  O  O1450  1  0.077170  0.036130  0.543400  1.0  -0.5977
  O  O1451  1  0.700030  0.291170  0.909920  1.0  -0.7603
  O  O1452  1  0.743830  0.369470  0.876740  1.0  -0.5977
  O  O1453  1  0.375500  0.742200  0.243250  1.0  -0.7565
  O  O1454  1  0.297200  0.707700  0.210070  1.0  -0.5964
  O  O1455  1  0.042170  0.075530  0.576580  1.0  -0.7604
  O  O1456  1  0.963870  0.041030  0.543400  1.0  -0.5964
  O  O1457  1  0.708830  0.408870  0.909920  1.0  -0.7564
  O  O1458  1  0.630530  0.374370  0.876740  1.0  -0.5964
  O  O1459  1  0.366700  0.742200  0.743250  1.0  -0.7561
  O  O1460  1  0.410500  0.707700  0.710070  1.0  -0.5968
  O  O1461  1  0.033370  0.075530  0.076580  1.0  -0.76
  O  O1462  1  0.077170  0.041030  0.043400  1.0  -0.5968
  O  O1463  1  0.700030  0.408870  0.409920  1.0  -0.7561
  O  O1464  1  0.743830  0.374370  0.376740  1.0  -0.5968
  O  O1465  1  0.375500  0.633300  0.743250  1.0  -0.7566
  O  O1466  1  0.297200  0.589500  0.710070  1.0  -0.5965
  O  O1467  1  0.042170  0.966630  0.076580  1.0  -0.7565
  O  O1468  1  0.963870  0.922830  0.043400  1.0  -0.5965
  O  O1469  1  0.708830  0.299970  0.409920  1.0  -0.7604
  O  O1470  1  0.630530  0.256170  0.376740  1.0  -0.5965
  O  O1471  1  0.257800  0.624500  0.743250  1.0  -0.757
  O  O1472  1  0.292300  0.702800  0.710070  1.0  -0.5987
  O  O1473  1  0.924470  0.957830  0.076580  1.0  -0.761
  O  O1474  1  0.958970  0.036130  0.043400  1.0  -0.5987
  O  O1475  1  0.591130  0.291170  0.409920  1.0  -0.757
  O  O1476  1  0.625630  0.369470  0.376740  1.0  -0.5987
