# generated using pymatgen
data_AlAg3H27C39(NO)6
_symmetry_space_group_name_H-M   'P 1'
_cell_length_a   22.45620000
_cell_length_b   22.45620000
_cell_length_c   72.14810000
_cell_angle_alpha   90.00000000
_cell_angle_beta   90.00000000
_cell_angle_gamma   120.00000000
_symmetry_Int_Tables_number   1
_chemical_formula_structural   AlAg3H27C39(NO)6
_chemical_formula_sum   'Al18 Ag54 H486 C702 N108 O108'
_cell_volume   31508.52443766
_cell_formula_units_Z   18
loop_
 _symmetry_equiv_pos_site_id
 _symmetry_equiv_pos_as_xyz
  1  'x, y, z'
loop_
 _atom_site_type_symbol
 _atom_site_label
 _atom_site_symmetry_multiplicity
 _atom_site_fract_x
 _atom_site_fract_y
 _atom_site_fract_z
 _atom_site_occupancy
 _atom_site_charge
  Al  Al1  1  0.666667  0.333333  0.890060  1.0  1.8154
  Al  Al2  1  0.333333  0.666667  0.223390  1.0  1.8155
  Al  Al3  1  0.000000  0.000000  0.556730  1.0  1.8151
  Al  Al4  1  0.666667  0.333333  0.390060  1.0  1.8154
  Al  Al5  1  0.333333  0.666667  0.723390  1.0  1.8155
  Al  Al6  1  0.000000  0.000000  0.056730  1.0  1.8151
  Al  Al7  1  0.666667  0.333333  0.802770  1.0  1.8345
  Al  Al8  1  0.333333  0.666667  0.136100  1.0  1.8346
  Al  Al9  1  0.000000  0.000000  0.469440  1.0  1.8345
  Al  Al10  1  0.666667  0.333333  0.302770  1.0  1.8345
  Al  Al11  1  0.333333  0.666667  0.636100  1.0  1.8346
  Al  Al12  1  0.000000  0.000000  0.969440  1.0  1.8345
  Al  Al13  1  0.666667  0.333333  0.708120  1.0  1.8011
  Al  Al14  1  0.333333  0.666667  0.041450  1.0  1.8012
  Al  Al15  1  0.000000  0.000000  0.374790  1.0  1.801
  Al  Al16  1  0.666667  0.333333  0.208120  1.0  1.8011
  Al  Al17  1  0.333333  0.666667  0.541450  1.0  1.8012
  Al  Al18  1  0.000000  0.000000  0.874790  1.0  1.801
  Ag  Ag19  1  0.363550  0.187620  0.981710  1.0  0.2411
  Ag  Ag20  1  0.030220  0.520950  0.315040  1.0  0.2411
  Ag  Ag21  1  0.696880  0.854290  0.648380  1.0  0.2412
  Ag  Ag22  1  0.812380  0.175930  0.981710  1.0  0.2407
  Ag  Ag23  1  0.479050  0.509260  0.315040  1.0  0.2407
  Ag  Ag24  1  0.145710  0.842600  0.648380  1.0  0.2407
  Ag  Ag25  1  0.824070  0.636450  0.981710  1.0  0.2405
  Ag  Ag26  1  0.490740  0.969780  0.315040  1.0  0.2405
  Ag  Ag27  1  0.157400  0.303120  0.648380  1.0  0.2406
  Ag  Ag28  1  0.812380  0.636450  0.481710  1.0  0.2407
  Ag  Ag29  1  0.479050  0.969780  0.815040  1.0  0.2407
  Ag  Ag30  1  0.145710  0.303120  0.148380  1.0  0.2408
  Ag  Ag31  1  0.824070  0.187620  0.481710  1.0  0.24
  Ag  Ag32  1  0.490740  0.520950  0.815040  1.0  0.24
  Ag  Ag33  1  0.157400  0.854290  0.148380  1.0  0.24
  Ag  Ag34  1  0.363550  0.175930  0.481710  1.0  0.2416
  Ag  Ag35  1  0.030220  0.509260  0.815040  1.0  0.2416
  Ag  Ag36  1  0.696880  0.842600  0.148380  1.0  0.2417
  Ag  Ag37  1  0.328170  0.190640  0.885180  1.0  0.2345
  Ag  Ag38  1  0.994840  0.523970  0.218510  1.0  0.2345
  Ag  Ag39  1  0.661500  0.857310  0.551850  1.0  0.2341
  Ag  Ag40  1  0.809360  0.137530  0.885180  1.0  0.2345
  Ag  Ag41  1  0.476030  0.470860  0.218510  1.0  0.2345
  Ag  Ag42  1  0.142690  0.804200  0.551850  1.0  0.2341
  Ag  Ag43  1  0.862470  0.671830  0.885180  1.0  0.2347
  Ag  Ag44  1  0.529140  0.005160  0.218510  1.0  0.2347
  Ag  Ag45  1  0.195800  0.338500  0.551850  1.0  0.2346
  Ag  Ag46  1  0.809360  0.671830  0.385180  1.0  0.2351
  Ag  Ag47  1  0.476030  0.005160  0.718510  1.0  0.2351
  Ag  Ag48  1  0.142690  0.338500  0.051850  1.0  0.2347
  Ag  Ag49  1  0.862470  0.190640  0.385180  1.0  0.2352
  Ag  Ag50  1  0.529140  0.523970  0.718510  1.0  0.2352
  Ag  Ag51  1  0.195800  0.857310  0.051850  1.0  0.2348
  Ag  Ag52  1  0.328170  0.137530  0.385180  1.0  0.2349
  Ag  Ag53  1  0.994840  0.470860  0.718510  1.0  0.2349
  Ag  Ag54  1  0.661500  0.804200  0.051850  1.0  0.2348
  Ag  Ag55  1  0.302630  0.137120  0.783100  1.0  0.2148
  Ag  Ag56  1  0.969300  0.470450  0.116430  1.0  0.2149
  Ag  Ag57  1  0.635960  0.803790  0.449770  1.0  0.2148
  Ag  Ag58  1  0.862880  0.165510  0.783100  1.0  0.217
  Ag  Ag59  1  0.529550  0.498840  0.116430  1.0  0.2172
  Ag  Ag60  1  0.196210  0.832180  0.449770  1.0  0.2172
  Ag  Ag61  1  0.834490  0.697370  0.783100  1.0  0.2175
  Ag  Ag62  1  0.501160  0.030700  0.116430  1.0  0.2175
  Ag  Ag63  1  0.167820  0.364040  0.449770  1.0  0.2174
  Ag  Ag64  1  0.862880  0.697370  0.283100  1.0  0.2177
  Ag  Ag65  1  0.529550  0.030700  0.616430  1.0  0.2178
  Ag  Ag66  1  0.196210  0.364040  0.949770  1.0  0.2177
  Ag  Ag67  1  0.834490  0.137120  0.283100  1.0  0.2166
  Ag  Ag68  1  0.501160  0.470450  0.616430  1.0  0.2167
  Ag  Ag69  1  0.167820  0.803790  0.949770  1.0  0.2168
  Ag  Ag70  1  0.302630  0.165510  0.283100  1.0  0.2151
  Ag  Ag71  1  0.969300  0.498840  0.616430  1.0  0.2151
  Ag  Ag72  1  0.635960  0.832180  0.949770  1.0  0.215
  H  H73  1  0.861700  0.356100  0.898800  1.0  0.0988
  H  H74  1  0.737600  0.430700  0.938300  1.0  0.1033
  H  H75  1  0.762400  0.489200  0.967300  1.0  0.095
  H  H76  1  0.755800  0.640800  0.945500  1.0  0.0519
  H  H77  1  0.718700  0.584800  0.917100  1.0  0.108
  H  H78  1  0.480700  0.059200  0.880600  1.0  0.1128
  H  H79  1  0.456000  0.979900  0.857400  1.0  0.0801
  H  H80  1  0.574300  0.119200  0.822000  1.0  0.0708
  H  H81  1  0.600300  0.204700  0.843800  1.0  0.0913
  H  H82  1  0.528370  0.689430  0.232130  1.0  0.0988
  H  H83  1  0.404270  0.764030  0.271630  1.0  0.1033
  H  H84  1  0.429070  0.822530  0.300630  1.0  0.095
  H  H85  1  0.422470  0.974130  0.278830  1.0  0.0519
  H  H86  1  0.385370  0.918130  0.250430  1.0  0.108
  H  H87  1  0.147370  0.392530  0.213930  1.0  0.1128
  H  H88  1  0.122670  0.313230  0.190730  1.0  0.0804
  H  H89  1  0.240970  0.452530  0.155330  1.0  0.0708
  H  H90  1  0.266970  0.538030  0.177130  1.0  0.0913
  H  H91  1  0.195030  0.022770  0.565470  1.0  0.0988
  H  H92  1  0.070930  0.097370  0.604970  1.0  0.1033
  H  H93  1  0.095730  0.155870  0.633970  1.0  0.0974
  H  H94  1  0.089130  0.307470  0.612170  1.0  0.0519
  H  H95  1  0.052030  0.251470  0.583770  1.0  0.108
  H  H96  1  0.814030  0.725870  0.547270  1.0  0.1128
  H  H97  1  0.789330  0.646570  0.524070  1.0  0.0763
  H  H98  1  0.907630  0.785870  0.488670  1.0  0.0708
  H  H99  1  0.933630  0.871370  0.510470  1.0  0.0913
  H  H100  1  0.643900  0.505600  0.898800  1.0  0.0981
  H  H101  1  0.569300  0.306900  0.938300  1.0  0.1034
  H  H102  1  0.510800  0.273200  0.967300  1.0  0.0961
  H  H103  1  0.359200  0.115000  0.945500  1.0  0.0509
  H  H104  1  0.415200  0.133900  0.917100  1.0  0.1083
  H  H105  1  0.940800  0.421500  0.880600  1.0  0.1105
  H  H106  1  0.020100  0.476100  0.857400  1.0  0.0762
  H  H107  1  0.880800  0.455100  0.822000  1.0  0.0711
  H  H108  1  0.795300  0.395600  0.843800  1.0  0.0905
  H  H109  1  0.310570  0.838930  0.232130  1.0  0.0981
  H  H110  1  0.235970  0.640230  0.271630  1.0  0.1034
  H  H111  1  0.177470  0.606530  0.300630  1.0  0.0961
  H  H112  1  0.025870  0.448330  0.278830  1.0  0.0509
  H  H113  1  0.081870  0.467230  0.250430  1.0  0.1083
  H  H114  1  0.607470  0.754830  0.213930  1.0  0.1105
  H  H115  1  0.686770  0.809430  0.190730  1.0  0.0766
  H  H116  1  0.547470  0.788430  0.155330  1.0  0.0711
  H  H117  1  0.461970  0.728930  0.177130  1.0  0.0905
  H  H118  1  0.977230  0.172270  0.565470  1.0  0.0981
  H  H119  1  0.902630  0.973570  0.604970  1.0  0.1034
  H  H120  1  0.844130  0.939870  0.633970  1.0  0.0949
  H  H121  1  0.692530  0.781670  0.612170  1.0  0.051
  H  H122  1  0.748530  0.800570  0.583770  1.0  0.1083
  H  H123  1  0.274130  0.088170  0.547270  1.0  0.1105
  H  H124  1  0.353430  0.142770  0.524070  1.0  0.0758
  H  H125  1  0.214130  0.121770  0.488670  1.0  0.0711
  H  H126  1  0.128630  0.062270  0.510470  1.0  0.0905
  H  H127  1  0.494400  0.138300  0.898800  1.0  0.0991
  H  H128  1  0.693100  0.262400  0.938300  1.0  0.1032
  H  H129  1  0.726800  0.237600  0.967300  1.0  0.0946
  H  H130  1  0.885000  0.244200  0.945500  1.0  0.0486
  H  H131  1  0.866100  0.281300  0.917100  1.0  0.1079
  H  H132  1  0.578500  0.519300  0.880600  1.0  0.1111
  H  H133  1  0.523900  0.544000  0.857400  1.0  0.0774
  H  H134  1  0.544900  0.425700  0.822000  1.0  0.0728
  H  H135  1  0.604400  0.399700  0.843800  1.0  0.0896
  H  H136  1  0.161070  0.471630  0.232130  1.0  0.0991
  H  H137  1  0.359770  0.595730  0.271630  1.0  0.1032
  H  H138  1  0.393470  0.570930  0.300630  1.0  0.0946
  H  H139  1  0.551670  0.577530  0.278830  1.0  0.0487
  H  H140  1  0.532770  0.614630  0.250430  1.0  0.1079
  H  H141  1  0.245170  0.852630  0.213930  1.0  0.1111
  H  H142  1  0.190570  0.877330  0.190730  1.0  0.076
  H  H143  1  0.211570  0.759030  0.155330  1.0  0.0728
  H  H144  1  0.271070  0.733030  0.177130  1.0  0.0896
  H  H145  1  0.827730  0.804970  0.565470  1.0  0.0991
  H  H146  1  0.026430  0.929070  0.604970  1.0  0.1032
  H  H147  1  0.060130  0.904270  0.633970  1.0  0.096
  H  H148  1  0.218330  0.910870  0.612170  1.0  0.0488
  H  H149  1  0.199430  0.947970  0.583770  1.0  0.1079
  H  H150  1  0.911830  0.185970  0.547270  1.0  0.1111
  H  H151  1  0.857230  0.210670  0.524070  1.0  0.0787
  H  H152  1  0.878230  0.092370  0.488670  1.0  0.0728
  H  H153  1  0.937730  0.066370  0.510470  1.0  0.0896
  H  H154  1  0.643900  0.138300  0.398800  1.0  0.0991
  H  H155  1  0.569300  0.262400  0.438300  1.0  0.1038
  H  H156  1  0.510800  0.237600  0.467300  1.0  0.0951
  H  H157  1  0.359200  0.244200  0.445500  1.0  0.0479
  H  H158  1  0.415200  0.281300  0.417100  1.0  0.1078
  H  H159  1  0.940800  0.519300  0.380600  1.0  0.1106
  H  H160  1  0.020100  0.544000  0.357400  1.0  0.0797
  H  H161  1  0.880800  0.425700  0.322000  1.0  0.0726
  H  H162  1  0.795300  0.399700  0.343800  1.0  0.0894
  H  H163  1  0.310570  0.471630  0.732130  1.0  0.0991
  H  H164  1  0.235970  0.595730  0.771630  1.0  0.1038
  H  H165  1  0.177470  0.570930  0.800630  1.0  0.0951
  H  H166  1  0.025870  0.577530  0.778830  1.0  0.0479
  H  H167  1  0.081870  0.614630  0.750430  1.0  0.1078
  H  H168  1  0.607470  0.852630  0.713930  1.0  0.1106
  H  H169  1  0.686770  0.877330  0.690730  1.0  0.08
  H  H170  1  0.547470  0.759030  0.655330  1.0  0.0726
  H  H171  1  0.461970  0.733030  0.677130  1.0  0.0894
  H  H172  1  0.977230  0.804970  0.065470  1.0  0.0991
  H  H173  1  0.902630  0.929070  0.104970  1.0  0.1038
  H  H174  1  0.844130  0.904270  0.133970  1.0  0.0976
  H  H175  1  0.692530  0.910870  0.112170  1.0  0.0479
  H  H176  1  0.748530  0.947970  0.083770  1.0  0.1078
  H  H177  1  0.274130  0.185970  0.047270  1.0  0.1106
  H  H178  1  0.353430  0.210670  0.024070  1.0  0.0766
  H  H179  1  0.214130  0.092370  0.988670  1.0  0.0726
  H  H180  1  0.128630  0.066370  0.010470  1.0  0.0894
  H  H181  1  0.494400  0.356100  0.398800  1.0  0.0976
  H  H182  1  0.693100  0.430700  0.438300  1.0  0.1027
  H  H183  1  0.726800  0.489200  0.467300  1.0  0.0963
  H  H184  1  0.885000  0.640800  0.445500  1.0  0.0522
  H  H185  1  0.866100  0.584800  0.417100  1.0  0.1075
  H  H186  1  0.578500  0.059200  0.380600  1.0  0.1132
  H  H187  1  0.523900  0.979900  0.357400  1.0  0.0761
  H  H188  1  0.544900  0.119200  0.322000  1.0  0.0711
  H  H189  1  0.604400  0.204700  0.343800  1.0  0.0914
  H  H190  1  0.161070  0.689430  0.732130  1.0  0.0976
  H  H191  1  0.359770  0.764030  0.771630  1.0  0.1027
  H  H192  1  0.393470  0.822530  0.800630  1.0  0.0963
  H  H193  1  0.551670  0.974130  0.778830  1.0  0.0523
  H  H194  1  0.532770  0.918130  0.750430  1.0  0.1075
  H  H195  1  0.245170  0.392530  0.713930  1.0  0.1132
  H  H196  1  0.190570  0.313230  0.690730  1.0  0.0777
  H  H197  1  0.211570  0.452530  0.655330  1.0  0.0711
  H  H198  1  0.271070  0.538030  0.677130  1.0  0.0914
  H  H199  1  0.827730  0.022770  0.065470  1.0  0.0976
  H  H200  1  0.026430  0.097370  0.104970  1.0  0.1027
  H  H201  1  0.060130  0.155870  0.133970  1.0  0.0946
  H  H202  1  0.218330  0.307470  0.112170  1.0  0.0523
  H  H203  1  0.199430  0.251470  0.083770  1.0  0.1075
  H  H204  1  0.911830  0.725870  0.047270  1.0  0.1132
  H  H205  1  0.857230  0.646570  0.024070  1.0  0.0762
  H  H206  1  0.878230  0.785870  0.988670  1.0  0.0711
  H  H207  1  0.937730  0.871370  0.010470  1.0  0.0914
  H  H208  1  0.861700  0.505600  0.398800  1.0  0.0983
  H  H209  1  0.737600  0.306900  0.438300  1.0  0.1033
  H  H210  1  0.762400  0.273200  0.467300  1.0  0.0944
  H  H211  1  0.755800  0.115000  0.445500  1.0  0.0504
  H  H212  1  0.718700  0.133900  0.417100  1.0  0.1088
  H  H213  1  0.480700  0.421500  0.380600  1.0  0.1111
  H  H214  1  0.456000  0.476100  0.357400  1.0  0.0766
  H  H215  1  0.574300  0.455100  0.322000  1.0  0.071
  H  H216  1  0.600300  0.395600  0.343800  1.0  0.0905
  H  H217  1  0.528370  0.838930  0.732130  1.0  0.0983
  H  H218  1  0.404270  0.640230  0.771630  1.0  0.1033
  H  H219  1  0.429070  0.606530  0.800630  1.0  0.0944
  H  H220  1  0.422470  0.448330  0.778830  1.0  0.0505
  H  H221  1  0.385370  0.467230  0.750430  1.0  0.1088
  H  H222  1  0.147370  0.754830  0.713930  1.0  0.1111
  H  H223  1  0.122670  0.809430  0.690730  1.0  0.0757
  H  H224  1  0.240970  0.788430  0.655330  1.0  0.071
  H  H225  1  0.266970  0.728930  0.677130  1.0  0.0905
  H  H226  1  0.195030  0.172270  0.065470  1.0  0.0983
  H  H227  1  0.070930  0.973570  0.104970  1.0  0.1033
  H  H228  1  0.095730  0.939870  0.133970  1.0  0.0957
  H  H229  1  0.089130  0.781670  0.112170  1.0  0.0506
  H  H230  1  0.052030  0.800570  0.083770  1.0  0.1088
  H  H231  1  0.814030  0.088170  0.047270  1.0  0.1111
  H  H232  1  0.789330  0.142770  0.024070  1.0  0.0781
  H  H233  1  0.907630  0.121770  0.988670  1.0  0.071
  H  H234  1  0.933630  0.062270  0.010470  1.0  0.0905
  H  H235  1  0.841900  0.310100  0.800600  1.0  0.0958
  H  H236  1  0.737100  0.446800  0.850300  1.0  0.0989
  H  H237  1  0.797000  0.524300  0.873900  1.0  0.0723
  H  H238  1  0.822100  0.678400  0.843300  1.0  0.0538
  H  H239  1  0.759400  0.609200  0.819700  1.0  0.1048
  H  H240  1  0.460900  0.073100  0.784100  1.0  0.0991
  H  H241  1  0.424000  0.009500  0.756600  1.0  0.095
  H  H242  1  0.589900  0.141200  0.730700  1.0  0.0622
  H  H243  1  0.622600  0.222400  0.755500  1.0  0.1147
  H  H244  1  0.508570  0.643430  0.133930  1.0  0.0958
  H  H245  1  0.403770  0.780130  0.183630  1.0  0.0989
  H  H246  1  0.463670  0.857630  0.207230  1.0  0.0723
  H  H247  1  0.488770  0.011730  0.176630  1.0  0.0538
  H  H248  1  0.426070  0.942530  0.153030  1.0  0.1048
  H  H249  1  0.127570  0.406430  0.117430  1.0  0.0991
  H  H250  1  0.090670  0.342830  0.089930  1.0  0.095
  H  H251  1  0.256570  0.474530  0.064030  1.0  0.0624
  H  H252  1  0.289270  0.555730  0.088830  1.0  0.1147
  H  H253  1  0.175230  0.976770  0.467270  1.0  0.0958
  H  H254  1  0.070430  0.113470  0.516970  1.0  0.0989
  H  H255  1  0.130330  0.190970  0.540570  1.0  0.0723
  H  H256  1  0.155430  0.345070  0.509970  1.0  0.0538
  H  H257  1  0.092730  0.275870  0.486370  1.0  0.1048
  H  H258  1  0.794230  0.739770  0.450770  1.0  0.0991
  H  H259  1  0.757330  0.676170  0.423270  1.0  0.095
  H  H260  1  0.923230  0.807870  0.397370  1.0  0.0622
  H  H261  1  0.955930  0.889070  0.422170  1.0  0.1147
  H  H262  1  0.689900  0.531800  0.800600  1.0  0.0958
  H  H263  1  0.553200  0.290300  0.850300  1.0  0.0998
  H  H264  1  0.475700  0.272700  0.873900  1.0  0.0734
  H  H265  1  0.321600  0.143700  0.843300  1.0  0.0538
  H  H266  1  0.390800  0.150200  0.819700  1.0  0.1052
  H  H267  1  0.926900  0.387800  0.784100  1.0  0.0985
  H  H268  1  0.990500  0.414500  0.756600  1.0  0.0959
  H  H269  1  0.858800  0.448700  0.730700  1.0  0.0632
  H  H270  1  0.777600  0.400200  0.755500  1.0  0.1153
  H  H271  1  0.356570  0.865130  0.133930  1.0  0.0958
  H  H272  1  0.219870  0.623630  0.183630  1.0  0.0998
  H  H273  1  0.142370  0.606030  0.207230  1.0  0.0734
  H  H274  1  0.988270  0.477030  0.176630  1.0  0.0538
  H  H275  1  0.057470  0.483530  0.153030  1.0  0.1052
  H  H276  1  0.593570  0.721130  0.117430  1.0  0.0985
  H  H277  1  0.657170  0.747830  0.089930  1.0  0.0959
  H  H278  1  0.525470  0.782030  0.064030  1.0  0.0634
  H  H279  1  0.444270  0.733530  0.088830  1.0  0.1153
  H  H280  1  0.023230  0.198470  0.467270  1.0  0.0958
  H  H281  1  0.886530  0.956970  0.516970  1.0  0.0998
  H  H282  1  0.809030  0.939370  0.540570  1.0  0.0734
  H  H283  1  0.654930  0.810370  0.509970  1.0  0.0538
  H  H284  1  0.724130  0.816870  0.486370  1.0  0.1052
  H  H285  1  0.260230  0.054470  0.450770  1.0  0.0985
  H  H286  1  0.323830  0.081170  0.423270  1.0  0.0959
  H  H287  1  0.192130  0.115370  0.397370  1.0  0.0632
  H  H288  1  0.110930  0.066870  0.422170  1.0  0.1153
  H  H289  1  0.468200  0.158100  0.800600  1.0  0.0954
  H  H290  1  0.709700  0.262900  0.850300  1.0  0.0997
  H  H291  1  0.727300  0.203000  0.873900  1.0  0.0729
  H  H292  1  0.856300  0.177900  0.843300  1.0  0.0536
  H  H293  1  0.849800  0.240600  0.819700  1.0  0.1042
  H  H294  1  0.612200  0.539100  0.784100  1.0  0.0984
  H  H295  1  0.585500  0.576000  0.756600  1.0  0.0965
  H  H296  1  0.551300  0.410100  0.730700  1.0  0.0633
  H  H297  1  0.599800  0.377400  0.755500  1.0  0.1158
  H  H298  1  0.134870  0.491430  0.133930  1.0  0.0954
  H  H299  1  0.376370  0.596230  0.183630  1.0  0.0997
  H  H300  1  0.393970  0.536330  0.207230  1.0  0.0729
  H  H301  1  0.522970  0.511230  0.176630  1.0  0.0536
  H  H302  1  0.516470  0.573930  0.153030  1.0  0.1042
  H  H303  1  0.278870  0.872430  0.117430  1.0  0.0984
  H  H304  1  0.252170  0.909330  0.089930  1.0  0.0965
  H  H305  1  0.217970  0.743430  0.064030  1.0  0.0635
  H  H306  1  0.266470  0.710730  0.088830  1.0  0.1158
  H  H307  1  0.801530  0.824770  0.467270  1.0  0.0954
  H  H308  1  0.043030  0.929570  0.516970  1.0  0.0997
  H  H309  1  0.060630  0.869670  0.540570  1.0  0.0729
  H  H310  1  0.189630  0.844570  0.509970  1.0  0.0535
  H  H311  1  0.183130  0.907270  0.486370  1.0  0.1042
  H  H312  1  0.945530  0.205770  0.450770  1.0  0.0984
  H  H313  1  0.918830  0.242670  0.423270  1.0  0.0965
  H  H314  1  0.884630  0.076770  0.397370  1.0  0.0633
  H  H315  1  0.933130  0.044070  0.422170  1.0  0.1158
  H  H316  1  0.689900  0.158100  0.300600  1.0  0.095
  H  H317  1  0.553200  0.262900  0.350300  1.0  0.0996
  H  H318  1  0.475700  0.203000  0.373900  1.0  0.0735
  H  H319  1  0.321600  0.177900  0.343300  1.0  0.0537
  H  H320  1  0.390800  0.240600  0.319700  1.0  0.1047
  H  H321  1  0.926900  0.539100  0.284100  1.0  0.0987
  H  H322  1  0.990500  0.576000  0.256600  1.0  0.0957
  H  H323  1  0.858800  0.410100  0.230700  1.0  0.0634
  H  H324  1  0.777600  0.377400  0.255500  1.0  0.1154
  H  H325  1  0.356570  0.491430  0.633930  1.0  0.095
  H  H326  1  0.219870  0.596230  0.683630  1.0  0.0996
  H  H327  1  0.142370  0.536330  0.707230  1.0  0.0735
  H  H328  1  0.988270  0.511230  0.676630  1.0  0.0537
  H  H329  1  0.057470  0.573930  0.653030  1.0  0.1047
  H  H330  1  0.593570  0.872430  0.617430  1.0  0.0987
  H  H331  1  0.657170  0.909330  0.589930  1.0  0.0956
  H  H332  1  0.525470  0.743430  0.564030  1.0  0.0637
  H  H333  1  0.444270  0.710730  0.588830  1.0  0.1154
  H  H334  1  0.023230  0.824770  0.967270  1.0  0.095
  H  H335  1  0.886530  0.929570  0.016970  1.0  0.0996
  H  H336  1  0.809030  0.869670  0.040570  1.0  0.0735
  H  H337  1  0.654930  0.844570  0.009970  1.0  0.0537
  H  H338  1  0.724130  0.907270  0.986370  1.0  0.1047
  H  H339  1  0.260230  0.205770  0.950770  1.0  0.0987
  H  H340  1  0.323830  0.242670  0.923270  1.0  0.0957
  H  H341  1  0.192130  0.076770  0.897370  1.0  0.0634
  H  H342  1  0.110930  0.044070  0.922170  1.0  0.1154
  H  H343  1  0.468200  0.310100  0.300600  1.0  0.0959
  H  H344  1  0.709700  0.446800  0.350300  1.0  0.0995
  H  H345  1  0.727300  0.524300  0.373900  1.0  0.0726
  H  H346  1  0.856300  0.678400  0.343300  1.0  0.0537
  H  H347  1  0.849800  0.609200  0.319700  1.0  0.1045
  H  H348  1  0.612200  0.073100  0.284100  1.0  0.0991
  H  H349  1  0.585500  0.009500  0.256600  1.0  0.0957
  H  H350  1  0.551300  0.141200  0.230700  1.0  0.0621
  H  H351  1  0.599800  0.222400  0.255500  1.0  0.1152
  H  H352  1  0.134870  0.643430  0.633930  1.0  0.0959
  H  H353  1  0.376370  0.780130  0.683630  1.0  0.0995
  H  H354  1  0.393970  0.857630  0.707230  1.0  0.0726
  H  H355  1  0.522970  0.011730  0.676630  1.0  0.0537
  H  H356  1  0.516470  0.942530  0.653030  1.0  0.1045
  H  H357  1  0.278870  0.406430  0.617430  1.0  0.0991
  H  H358  1  0.252170  0.342830  0.589930  1.0  0.0956
  H  H359  1  0.217970  0.474530  0.564030  1.0  0.0623
  H  H360  1  0.266470  0.555730  0.588830  1.0  0.1152
  H  H361  1  0.801530  0.976770  0.967270  1.0  0.0959
  H  H362  1  0.043030  0.113470  0.016970  1.0  0.0995
  H  H363  1  0.060630  0.190970  0.040570  1.0  0.0726
  H  H364  1  0.189630  0.345070  0.009970  1.0  0.0537
  H  H365  1  0.183130  0.275870  0.986370  1.0  0.1045
  H  H366  1  0.945530  0.739770  0.950770  1.0  0.0991
  H  H367  1  0.918830  0.676170  0.923270  1.0  0.0957
  H  H368  1  0.884630  0.807870  0.897370  1.0  0.0621
  H  H369  1  0.933130  0.889070  0.922170  1.0  0.1152
  H  H370  1  0.841900  0.531800  0.300600  1.0  0.0955
  H  H371  1  0.737100  0.290300  0.350300  1.0  0.0993
  H  H372  1  0.797000  0.272700  0.373900  1.0  0.0732
  H  H373  1  0.822100  0.143700  0.343300  1.0  0.0535
  H  H374  1  0.759400  0.150200  0.319700  1.0  0.1051
  H  H375  1  0.460900  0.387800  0.284100  1.0  0.0985
  H  H376  1  0.424000  0.414500  0.256600  1.0  0.0967
  H  H377  1  0.589900  0.448700  0.230700  1.0  0.0631
  H  H378  1  0.622600  0.400200  0.255500  1.0  0.1154
  H  H379  1  0.508570  0.865130  0.633930  1.0  0.0955
  H  H380  1  0.403770  0.623630  0.683630  1.0  0.0993
  H  H381  1  0.463670  0.606030  0.707230  1.0  0.0732
  H  H382  1  0.488770  0.477030  0.676630  1.0  0.0535
  H  H383  1  0.426070  0.483530  0.653030  1.0  0.1051
  H  H384  1  0.127570  0.721130  0.617430  1.0  0.0985
  H  H385  1  0.090670  0.747830  0.589930  1.0  0.0967
  H  H386  1  0.256570  0.782030  0.564030  1.0  0.0633
  H  H387  1  0.289270  0.733530  0.588830  1.0  0.1154
  H  H388  1  0.175230  0.198470  0.967270  1.0  0.0955
  H  H389  1  0.070430  0.956970  0.016970  1.0  0.0993
  H  H390  1  0.130330  0.939370  0.040570  1.0  0.0732
  H  H391  1  0.155430  0.810370  0.009970  1.0  0.0534
  H  H392  1  0.092730  0.816870  0.986370  1.0  0.1051
  H  H393  1  0.794230  0.054470  0.950770  1.0  0.0985
  H  H394  1  0.757330  0.081170  0.923270  1.0  0.0967
  H  H395  1  0.923230  0.115370  0.897370  1.0  0.0631
  H  H396  1  0.955930  0.066870  0.922170  1.0  0.1154
  H  H397  1  0.839900  0.312400  0.698900  1.0  0.0941
  H  H398  1  0.748400  0.466400  0.752000  1.0  0.2017
  H  H399  1  0.801600  0.549900  0.773300  1.0  0.0857
  H  H400  1  0.779900  0.683700  0.742700  1.0  0.0877
  H  H401  1  0.725200  0.599300  0.720300  1.0  0.0895
  H  H402  1  0.457900  0.122100  0.670500  1.0  0.107
  H  H403  1  0.456300  0.094300  0.640000  1.0  0.0793
  H  H404  1  0.641400  0.118700  0.644500  1.0  0.0738
  H  H405  1  0.659600  0.185100  0.670700  1.0  0.0843
  H  H406  1  0.506570  0.645730  0.032230  1.0  0.0941
  H  H407  1  0.415070  0.799730  0.085330  1.0  0.2017
  H  H408  1  0.468270  0.883230  0.106630  1.0  0.0857
  H  H409  1  0.446570  0.017030  0.076030  1.0  0.0874
  H  H410  1  0.391870  0.932630  0.053630  1.0  0.0895
  H  H411  1  0.124570  0.455430  0.003830  1.0  0.107
  H  H412  1  0.122970  0.427630  0.973330  1.0  0.0793
  H  H413  1  0.308070  0.452030  0.977830  1.0  0.0738
  H  H414  1  0.326270  0.518430  0.004030  1.0  0.0843
  H  H415  1  0.173230  0.979070  0.365570  1.0  0.0941
  H  H416  1  0.081730  0.133070  0.418670  1.0  0.2017
  H  H417  1  0.134930  0.216570  0.439970  1.0  0.0857
  H  H418  1  0.113230  0.350370  0.409370  1.0  0.088
  H  H419  1  0.058530  0.265970  0.386970  1.0  0.0895
  H  H420  1  0.791230  0.788770  0.337170  1.0  0.107
  H  H421  1  0.789630  0.760970  0.306670  1.0  0.0793
  H  H422  1  0.974730  0.785370  0.311170  1.0  0.0738
  H  H423  1  0.992930  0.851770  0.337370  1.0  0.0843
  H  H424  1  0.687600  0.527500  0.698900  1.0  0.0949
  H  H425  1  0.533600  0.282000  0.752000  1.0  0.2
  H  H426  1  0.450100  0.251700  0.773300  1.0  0.0866
  H  H427  1  0.316300  0.096200  0.742700  1.0  0.0856
  H  H428  1  0.400700  0.125900  0.720300  1.0  0.0869
  H  H429  1  0.877900  0.335800  0.670500  1.0  0.107
  H  H430  1  0.905700  0.362000  0.640000  1.0  0.0794
  H  H431  1  0.881300  0.522700  0.644500  1.0  0.0734
  H  H432  1  0.814900  0.474500  0.670700  1.0  0.0844
  H  H433  1  0.354270  0.860830  0.032230  1.0  0.0949
  H  H434  1  0.200270  0.615330  0.085330  1.0  0.2
  H  H435  1  0.116770  0.585030  0.106630  1.0  0.0866
  H  H436  1  0.982970  0.429530  0.076030  1.0  0.0873
  H  H437  1  0.067370  0.459230  0.053630  1.0  0.0869
  H  H438  1  0.544570  0.669130  0.003830  1.0  0.107
  H  H439  1  0.572370  0.695330  0.973330  1.0  0.0794
  H  H440  1  0.547970  0.856030  0.977830  1.0  0.0734
  H  H441  1  0.481570  0.807830  0.004030  1.0  0.0844
  H  H442  1  0.020930  0.194170  0.365570  1.0  0.0949
  H  H443  1  0.866930  0.948670  0.418670  1.0  0.2
  H  H444  1  0.783430  0.918370  0.439970  1.0  0.0867
  H  H445  1  0.649630  0.762870  0.409370  1.0  0.0881
  H  H446  1  0.734030  0.792570  0.386970  1.0  0.0869
  H  H447  1  0.211230  0.002470  0.337170  1.0  0.107
  H  H448  1  0.239030  0.028670  0.306670  1.0  0.0793
  H  H449  1  0.214630  0.189370  0.311170  1.0  0.0734
  H  H450  1  0.148230  0.141170  0.337370  1.0  0.0844
  H  H451  1  0.472500  0.160100  0.698900  1.0  0.0943
  H  H452  1  0.718000  0.251600  0.752000  1.0  0.201
  H  H453  1  0.748300  0.198400  0.773300  1.0  0.088
  H  H454  1  0.903800  0.220100  0.742700  1.0  0.0886
  H  H455  1  0.874100  0.274800  0.720300  1.0  0.0866
  H  H456  1  0.664200  0.542100  0.670500  1.0  0.1075
  H  H457  1  0.638000  0.543700  0.640000  1.0  0.0798
  H  H458  1  0.477300  0.358600  0.644500  1.0  0.0728
  H  H459  1  0.525500  0.340400  0.670700  1.0  0.083
  H  H460  1  0.139170  0.493430  0.032230  1.0  0.0943
  H  H461  1  0.384670  0.584930  0.085330  1.0  0.201
  H  H462  1  0.414970  0.531730  0.106630  1.0  0.088
  H  H463  1  0.570470  0.553430  0.076030  1.0  0.0879
  H  H464  1  0.540770  0.608130  0.053630  1.0  0.0866
  H  H465  1  0.330870  0.875430  0.003830  1.0  0.1075
  H  H466  1  0.304670  0.877030  0.973330  1.0  0.0798
  H  H467  1  0.143970  0.691930  0.977830  1.0  0.0728
  H  H468  1  0.192170  0.673730  0.004030  1.0  0.083
  H  H469  1  0.805830  0.826770  0.365570  1.0  0.0943
  H  H470  1  0.051330  0.918270  0.418670  1.0  0.201
  H  H471  1  0.081630  0.865070  0.439970  1.0  0.088
  H  H472  1  0.237130  0.886770  0.409370  1.0  0.0869
  H  H473  1  0.207430  0.941470  0.386970  1.0  0.0866
  H  H474  1  0.997530  0.208770  0.337170  1.0  0.1075
  H  H475  1  0.971330  0.210370  0.306670  1.0  0.0798
  H  H476  1  0.810630  0.025270  0.311170  1.0  0.0728
  H  H477  1  0.858830  0.007070  0.337370  1.0  0.083
  H  H478  1  0.687600  0.160100  0.198900  1.0  0.0942
  H  H479  1  0.533600  0.251600  0.252000  1.0  0.2008
  H  H480  1  0.450100  0.198400  0.273300  1.0  0.0881
  H  H481  1  0.316300  0.220100  0.242700  1.0  0.087
  H  H482  1  0.400700  0.274800  0.220300  1.0  0.0862
  H  H483  1  0.877900  0.542100  0.170500  1.0  0.1073
  H  H484  1  0.905700  0.543700  0.140000  1.0  0.0796
  H  H485  1  0.881300  0.358600  0.144500  1.0  0.0733
  H  H486  1  0.814900  0.340400  0.170700  1.0  0.0833
  H  H487  1  0.354270  0.493430  0.532230  1.0  0.0942
  H  H488  1  0.200270  0.584930  0.585330  1.0  0.2008
  H  H489  1  0.116770  0.531730  0.606630  1.0  0.0881
  H  H490  1  0.982970  0.553430  0.576030  1.0  0.0871
  H  H491  1  0.067370  0.608130  0.553630  1.0  0.0862
  H  H492  1  0.544570  0.875430  0.503830  1.0  0.1073
  H  H493  1  0.572370  0.877030  0.473330  1.0  0.0796
  H  H494  1  0.547970  0.691930  0.477830  1.0  0.0733
  H  H495  1  0.481570  0.673730  0.504030  1.0  0.0833
  H  H496  1  0.020930  0.826770  0.865570  1.0  0.0942
  H  H497  1  0.866930  0.918270  0.918670  1.0  0.2008
  H  H498  1  0.783430  0.865070  0.939970  1.0  0.0881
  H  H499  1  0.649630  0.886770  0.909370  1.0  0.0873
  H  H500  1  0.734030  0.941470  0.886970  1.0  0.0862
  H  H501  1  0.211230  0.208770  0.837170  1.0  0.1073
  H  H502  1  0.239030  0.210370  0.806670  1.0  0.0796
  H  H503  1  0.214630  0.025270  0.811170  1.0  0.0733
  H  H504  1  0.148230  0.007070  0.837370  1.0  0.0833
  H  H505  1  0.472500  0.312400  0.198900  1.0  0.0945
  H  H506  1  0.718000  0.466400  0.252000  1.0  0.2014
  H  H507  1  0.748300  0.549900  0.273300  1.0  0.0859
  H  H508  1  0.903800  0.683700  0.242700  1.0  0.0865
  H  H509  1  0.874100  0.599300  0.220300  1.0  0.0892
  H  H510  1  0.664200  0.122100  0.170500  1.0  0.1063
  H  H511  1  0.638000  0.094300  0.140000  1.0  0.0797
  H  H512  1  0.477300  0.118700  0.144500  1.0  0.0742
  H  H513  1  0.525500  0.185100  0.170700  1.0  0.0841
  H  H514  1  0.139170  0.645730  0.532230  1.0  0.0945
  H  H515  1  0.384670  0.799730  0.585330  1.0  0.2014
  H  H516  1  0.414970  0.883230  0.606630  1.0  0.0859
  H  H517  1  0.570470  0.017030  0.576030  1.0  0.0879
  H  H518  1  0.540770  0.932630  0.553630  1.0  0.0892
  H  H519  1  0.330870  0.455430  0.503830  1.0  0.1063
  H  H520  1  0.304670  0.427630  0.473330  1.0  0.0797
  H  H521  1  0.143970  0.452030  0.477830  1.0  0.0742
  H  H522  1  0.192170  0.518430  0.504030  1.0  0.0841
  H  H523  1  0.805830  0.979070  0.865570  1.0  0.0945
  H  H524  1  0.051330  0.133070  0.918670  1.0  0.2014
  H  H525  1  0.081630  0.216570  0.939970  1.0  0.086
  H  H526  1  0.237130  0.350370  0.909370  1.0  0.0891
  H  H527  1  0.207430  0.265970  0.886970  1.0  0.0892
  H  H528  1  0.997530  0.788770  0.837170  1.0  0.1063
  H  H529  1  0.971330  0.760970  0.806670  1.0  0.0796
  H  H530  1  0.810630  0.785370  0.811170  1.0  0.0742
  H  H531  1  0.858830  0.851770  0.837370  1.0  0.0841
  H  H532  1  0.839900  0.527500  0.198900  1.0  0.095
  H  H533  1  0.748400  0.282000  0.252000  1.0  0.1993
  H  H534  1  0.801600  0.251700  0.273300  1.0  0.0865
  H  H535  1  0.779900  0.096200  0.242700  1.0  0.0892
  H  H536  1  0.725200  0.125900  0.220300  1.0  0.0868
  H  H537  1  0.457900  0.335800  0.170500  1.0  0.1068
  H  H538  1  0.456300  0.362000  0.140000  1.0  0.079
  H  H539  1  0.641400  0.522700  0.144500  1.0  0.0736
  H  H540  1  0.659600  0.474500  0.170700  1.0  0.0839
  H  H541  1  0.506570  0.860830  0.532230  1.0  0.095
  H  H542  1  0.415070  0.615330  0.585330  1.0  0.1993
  H  H543  1  0.468270  0.585030  0.606630  1.0  0.0865
  H  H544  1  0.446570  0.429530  0.576030  1.0  0.0885
  H  H545  1  0.391870  0.459230  0.553630  1.0  0.0868
  H  H546  1  0.124570  0.669130  0.503830  1.0  0.1068
  H  H547  1  0.122970  0.695330  0.473330  1.0  0.079
  H  H548  1  0.308070  0.856030  0.477830  1.0  0.0736
  H  H549  1  0.326270  0.807830  0.504030  1.0  0.0839
  H  H550  1  0.173230  0.194170  0.865570  1.0  0.095
  H  H551  1  0.081730  0.948670  0.918670  1.0  0.1993
  H  H552  1  0.134930  0.918370  0.939970  1.0  0.0865
  H  H553  1  0.113230  0.762870  0.909370  1.0  0.0875
  H  H554  1  0.058530  0.792570  0.886970  1.0  0.0867
  H  H555  1  0.791230  0.002470  0.837170  1.0  0.1068
  H  H556  1  0.789630  0.028670  0.806670  1.0  0.079
  H  H557  1  0.974730  0.189370  0.811170  1.0  0.0736
  H  H558  1  0.992930  0.141170  0.837370  1.0  0.0839
  C  C559  1  0.543600  0.237400  0.907610  1.0  0.353
  C  C560  1  0.816300  0.345900  0.895800  1.0  -0.1153
  C  C561  1  0.803200  0.371100  0.879330  1.0  0.3133
  C  C562  1  0.501100  0.219900  0.925410  1.0  0.0078
  C  C563  1  0.526800  0.265300  0.939550  1.0  -0.1405
  C  C564  1  0.489100  0.249300  0.956170  1.0  0.0942
  C  C565  1  0.755100  0.598500  0.943720  1.0  0.1543
  C  C566  1  0.729000  0.563800  0.927030  1.0  -0.218
  C  C567  1  0.550100  0.142700  0.865050  1.0  -0.0242
  C  C568  1  0.501700  0.073300  0.868690  1.0  -0.2445
  C  C569  1  0.485900  0.027100  0.854590  1.0  0.1285
  C  C570  1  0.553500  0.106700  0.833830  1.0  0.1425
  C  C571  1  0.571900  0.157900  0.847200  1.0  -0.1646
  C  C572  1  0.210270  0.570730  0.240940  1.0  0.353
  C  C573  1  0.482970  0.679230  0.229130  1.0  -0.1153
  C  C574  1  0.469870  0.704430  0.212660  1.0  0.3136
  C  C575  1  0.167770  0.553230  0.258740  1.0  0.0078
  C  C576  1  0.193470  0.598630  0.272880  1.0  -0.1405
  C  C577  1  0.155770  0.582630  0.289500  1.0  0.0942
  C  C578  1  0.421770  0.931830  0.277050  1.0  0.1544
  C  C579  1  0.395670  0.897130  0.260360  1.0  -0.218
  C  C580  1  0.216770  0.476030  0.198380  1.0  -0.0242
  C  C581  1  0.168370  0.406630  0.202020  1.0  -0.2445
  C  C582  1  0.152570  0.360430  0.187920  1.0  0.1285
  C  C583  1  0.220170  0.440030  0.167160  1.0  0.1425
  C  C584  1  0.238570  0.491230  0.180530  1.0  -0.1646
  C  C585  1  0.876930  0.904070  0.574280  1.0  0.353
  C  C586  1  0.149630  0.012570  0.562470  1.0  -0.1153
  C  C587  1  0.136530  0.037770  0.546000  1.0  0.3133
  C  C588  1  0.834430  0.886570  0.592080  1.0  0.0078
  C  C589  1  0.860130  0.931970  0.606220  1.0  -0.1405
  C  C590  1  0.822430  0.915970  0.622840  1.0  0.0942
  C  C591  1  0.088430  0.265170  0.610390  1.0  0.1544
  C  C592  1  0.062330  0.230470  0.593700  1.0  -0.218
  C  C593  1  0.883430  0.809370  0.531720  1.0  -0.0242
  C  C594  1  0.835030  0.739970  0.535360  1.0  -0.2445
  C  C595  1  0.819230  0.693770  0.521260  1.0  0.1279
  C  C596  1  0.886830  0.773370  0.500500  1.0  0.1425
  C  C597  1  0.905230  0.824570  0.513870  1.0  -0.1646
  C  C598  1  0.762600  0.306200  0.907610  1.0  0.3499
  C  C599  1  0.654100  0.470400  0.895800  1.0  -0.1189
  C  C600  1  0.628900  0.432100  0.879330  1.0  0.3165
  C  C601  1  0.780100  0.281200  0.925410  1.0  0.0064
  C  C602  1  0.734700  0.261500  0.939550  1.0  -0.1377
  C  C603  1  0.750700  0.239800  0.956170  1.0  0.0952
  C  C604  1  0.401500  0.156600  0.943720  1.0  0.1523
  C  C605  1  0.436200  0.165200  0.927030  1.0  -0.2214
  C  C606  1  0.857300  0.407400  0.865050  1.0  -0.0216
  C  C607  1  0.926700  0.428400  0.868690  1.0  -0.2385
  C  C608  1  0.972900  0.458800  0.854590  1.0  0.1324
  C  C609  1  0.893300  0.446800  0.833830  1.0  0.1456
  C  C610  1  0.842100  0.414000  0.847200  1.0  -0.1632
  C  C611  1  0.429270  0.639530  0.240940  1.0  0.3499
  C  C612  1  0.320770  0.803730  0.229130  1.0  -0.1189
  C  C613  1  0.295570  0.765430  0.212660  1.0  0.3165
  C  C614  1  0.446770  0.614530  0.258740  1.0  0.0064
  C  C615  1  0.401370  0.594830  0.272880  1.0  -0.1377
  C  C616  1  0.417370  0.573130  0.289500  1.0  0.0952
  C  C617  1  0.068170  0.489930  0.277050  1.0  0.1523
  C  C618  1  0.102870  0.498530  0.260360  1.0  -0.2214
  C  C619  1  0.523970  0.740730  0.198380  1.0  -0.0216
  C  C620  1  0.593370  0.761730  0.202020  1.0  -0.2385
  C  C621  1  0.639570  0.792130  0.187920  1.0  0.1324
  C  C622  1  0.559970  0.780130  0.167160  1.0  0.1456
  C  C623  1  0.508770  0.747330  0.180530  1.0  -0.1632
  C  C624  1  0.095930  0.972870  0.574280  1.0  0.3499
  C  C625  1  0.987430  0.137070  0.562470  1.0  -0.1189
  C  C626  1  0.962230  0.098770  0.546000  1.0  0.3165
  C  C627  1  0.113430  0.947870  0.592080  1.0  0.0065
  C  C628  1  0.068030  0.928170  0.606220  1.0  -0.1377
  C  C629  1  0.084030  0.906470  0.622840  1.0  0.0953
  C  C630  1  0.734830  0.823270  0.610390  1.0  0.1522
  C  C631  1  0.769530  0.831870  0.593700  1.0  -0.2214
  C  C632  1  0.190630  0.074070  0.531720  1.0  -0.0216
  C  C633  1  0.260030  0.095070  0.535360  1.0  -0.2385
  C  C634  1  0.306230  0.125470  0.521260  1.0  0.1318
  C  C635  1  0.226630  0.113470  0.500500  1.0  0.1456
  C  C636  1  0.175430  0.080670  0.513870  1.0  -0.1632
  C  C637  1  0.693800  0.456400  0.907610  1.0  0.3531
  C  C638  1  0.529600  0.183700  0.895800  1.0  -0.1165
  C  C639  1  0.567900  0.196800  0.879330  1.0  0.3158
  C  C640  1  0.718800  0.498900  0.925410  1.0  0.0061
  C  C641  1  0.738500  0.473200  0.939550  1.0  -0.14
  C  C642  1  0.760200  0.510900  0.956170  1.0  0.0964
  C  C643  1  0.843400  0.244900  0.943720  1.0  0.1553
  C  C644  1  0.834800  0.271000  0.927030  1.0  -0.2169
  C  C645  1  0.592600  0.449900  0.865050  1.0  -0.0218
  C  C646  1  0.571600  0.498300  0.868690  1.0  -0.2408
  C  C647  1  0.541200  0.514100  0.854590  1.0  0.1311
  C  C648  1  0.553200  0.446500  0.833830  1.0  0.1412
  C  C649  1  0.586000  0.428100  0.847200  1.0  -0.1618
  C  C650  1  0.360470  0.789730  0.240940  1.0  0.3531
  C  C651  1  0.196270  0.517030  0.229130  1.0  -0.1165
  C  C652  1  0.234570  0.530130  0.212660  1.0  0.3158
  C  C653  1  0.385470  0.832230  0.258740  1.0  0.0061
  C  C654  1  0.405170  0.806530  0.272880  1.0  -0.14
  C  C655  1  0.426870  0.844230  0.289500  1.0  0.0964
  C  C656  1  0.510070  0.578230  0.277050  1.0  0.1553
  C  C657  1  0.501470  0.604330  0.260360  1.0  -0.2169
  C  C658  1  0.259270  0.783230  0.198380  1.0  -0.0218
  C  C659  1  0.238270  0.831630  0.202020  1.0  -0.2408
  C  C660  1  0.207870  0.847430  0.187920  1.0  0.1311
  C  C661  1  0.219870  0.779830  0.167160  1.0  0.1412
  C  C662  1  0.252670  0.761430  0.180530  1.0  -0.1618
  C  C663  1  0.027130  0.123070  0.574280  1.0  0.3531
  C  C664  1  0.862930  0.850370  0.562470  1.0  -0.1165
  C  C665  1  0.901230  0.863470  0.546000  1.0  0.316
  C  C666  1  0.052130  0.165570  0.592080  1.0  0.006
  C  C667  1  0.071830  0.139870  0.606220  1.0  -0.14
  C  C668  1  0.093530  0.177570  0.622840  1.0  0.0964
  C  C669  1  0.176730  0.911570  0.610390  1.0  0.1554
  C  C670  1  0.168130  0.937670  0.593700  1.0  -0.2169
  C  C671  1  0.925930  0.116570  0.531720  1.0  -0.0218
  C  C672  1  0.904930  0.164970  0.535360  1.0  -0.2408
  C  C673  1  0.874530  0.180770  0.521260  1.0  0.1305
  C  C674  1  0.886530  0.113170  0.500500  1.0  0.1412
  C  C675  1  0.919330  0.094770  0.513870  1.0  -0.1618
  C  C676  1  0.762600  0.456400  0.407610  1.0  0.3537
  C  C677  1  0.654100  0.183700  0.395800  1.0  -0.1154
  C  C678  1  0.628900  0.196800  0.379330  1.0  0.3166
  C  C679  1  0.780100  0.498900  0.425410  1.0  0.0058
  C  C680  1  0.734700  0.473200  0.439550  1.0  -0.1404
  C  C681  1  0.750700  0.510900  0.456170  1.0  0.0949
  C  C682  1  0.401500  0.244900  0.443720  1.0  0.1536
  C  C683  1  0.436200  0.271000  0.427030  1.0  -0.2183
  C  C684  1  0.857300  0.449900  0.365050  1.0  -0.0221
  C  C685  1  0.926700  0.498300  0.368690  1.0  -0.2402
  C  C686  1  0.972900  0.514100  0.354590  1.0  0.1312
  C  C687  1  0.893300  0.446500  0.333830  1.0  0.1406
  C  C688  1  0.842100  0.428100  0.347200  1.0  -0.1608
  C  C689  1  0.429270  0.789730  0.740940  1.0  0.3537
  C  C690  1  0.320770  0.517030  0.729130  1.0  -0.1154
  C  C691  1  0.295570  0.530130  0.712660  1.0  0.3169
  C  C692  1  0.446770  0.832230  0.758740  1.0  0.0058
  C  C693  1  0.401370  0.806530  0.772880  1.0  -0.1404
  C  C694  1  0.417370  0.844230  0.789500  1.0  0.0949
  C  C695  1  0.068170  0.578230  0.777050  1.0  0.1537
  C  C696  1  0.102870  0.604330  0.760360  1.0  -0.2183
  C  C697  1  0.523970  0.783230  0.698380  1.0  -0.0221
  C  C698  1  0.593370  0.831630  0.702020  1.0  -0.2402
  C  C699  1  0.639570  0.847430  0.687920  1.0  0.1312
  C  C700  1  0.559970  0.779830  0.667160  1.0  0.1406
  C  C701  1  0.508770  0.761430  0.680530  1.0  -0.1609
  C  C702  1  0.095930  0.123070  0.074280  1.0  0.3537
  C  C703  1  0.987430  0.850370  0.062470  1.0  -0.1154
  C  C704  1  0.962230  0.863470  0.046000  1.0  0.3166
  C  C705  1  0.113430  0.165570  0.092080  1.0  0.0059
  C  C706  1  0.068030  0.139870  0.106220  1.0  -0.1404
  C  C707  1  0.084030  0.177570  0.122840  1.0  0.0949
  C  C708  1  0.734830  0.911570  0.110390  1.0  0.1537
  C  C709  1  0.769530  0.937670  0.093700  1.0  -0.2183
  C  C710  1  0.190630  0.116570  0.031720  1.0  -0.0221
  C  C711  1  0.260030  0.164970  0.035360  1.0  -0.2402
  C  C712  1  0.306230  0.180770  0.021260  1.0  0.1306
  C  C713  1  0.226630  0.113170  0.000500  1.0  0.1406
  C  C714  1  0.175430  0.094770  0.013870  1.0  -0.1608
  C  C715  1  0.693800  0.237400  0.407610  1.0  0.3533
  C  C716  1  0.529600  0.345900  0.395800  1.0  -0.1184
  C  C717  1  0.567900  0.371100  0.379330  1.0  0.313
  C  C718  1  0.718800  0.219900  0.425410  1.0  0.0077
  C  C719  1  0.738500  0.265300  0.439550  1.0  -0.1414
  C  C720  1  0.760200  0.249300  0.456170  1.0  0.0938
  C  C721  1  0.843400  0.598500  0.443720  1.0  0.1542
  C  C722  1  0.834800  0.563800  0.427030  1.0  -0.218
  C  C723  1  0.592600  0.142700  0.365050  1.0  -0.0237
  C  C724  1  0.571600  0.073300  0.368690  1.0  -0.2436
  C  C725  1  0.541200  0.027100  0.354590  1.0  0.1288
  C  C726  1  0.553200  0.106700  0.333830  1.0  0.1433
  C  C727  1  0.586000  0.157900  0.347200  1.0  -0.164
  C  C728  1  0.360470  0.570730  0.740940  1.0  0.3533
  C  C729  1  0.196270  0.679230  0.729130  1.0  -0.1184
  C  C730  1  0.234570  0.704430  0.712660  1.0  0.313
  C  C731  1  0.385470  0.553230  0.758740  1.0  0.0077
  C  C732  1  0.405170  0.598630  0.772880  1.0  -0.1414
  C  C733  1  0.426870  0.582630  0.789500  1.0  0.0938
  C  C734  1  0.510070  0.931830  0.777050  1.0  0.1542
  C  C735  1  0.501470  0.897130  0.760360  1.0  -0.218
  C  C736  1  0.259270  0.476030  0.698380  1.0  -0.0237
  C  C737  1  0.238270  0.406630  0.702020  1.0  -0.2436
  C  C738  1  0.207870  0.360430  0.687920  1.0  0.1288
  C  C739  1  0.219870  0.440030  0.667160  1.0  0.1433
  C  C740  1  0.252670  0.491230  0.680530  1.0  -0.164
  C  C741  1  0.027130  0.904070  0.074280  1.0  0.3533
  C  C742  1  0.862930  0.012570  0.062470  1.0  -0.1184
  C  C743  1  0.901230  0.037770  0.046000  1.0  0.313
  C  C744  1  0.052130  0.886570  0.092080  1.0  0.0077
  C  C745  1  0.071830  0.931970  0.106220  1.0  -0.1414
  C  C746  1  0.093530  0.915970  0.122840  1.0  0.0939
  C  C747  1  0.176730  0.265170  0.110390  1.0  0.1541
  C  C748  1  0.168130  0.230470  0.093700  1.0  -0.218
  C  C749  1  0.925930  0.809370  0.031720  1.0  -0.0237
  C  C750  1  0.904930  0.739970  0.035360  1.0  -0.2436
  C  C751  1  0.874530  0.693770  0.021260  1.0  0.1282
  C  C752  1  0.886530  0.773370  0.000500  1.0  0.1433
  C  C753  1  0.919330  0.824570  0.013870  1.0  -0.164
  C  C754  1  0.543600  0.306200  0.407610  1.0  0.3495
  C  C755  1  0.816300  0.470400  0.395800  1.0  -0.1158
  C  C756  1  0.803200  0.432100  0.379330  1.0  0.3171
  C  C757  1  0.501100  0.281200  0.425410  1.0  0.0058
  C  C758  1  0.526800  0.261500  0.439550  1.0  -0.1357
  C  C759  1  0.489100  0.239800  0.456170  1.0  0.0964
  C  C760  1  0.755100  0.156600  0.443720  1.0  0.1531
  C  C761  1  0.729000  0.165200  0.427030  1.0  -0.2213
  C  C762  1  0.550100  0.407400  0.365050  1.0  -0.0225
  C  C763  1  0.501700  0.428400  0.368690  1.0  -0.2388
  C  C764  1  0.485900  0.458800  0.354590  1.0  0.1311
  C  C765  1  0.553500  0.446800  0.333830  1.0  0.1447
  C  C766  1  0.571900  0.414000  0.347200  1.0  -0.1647
  C  C767  1  0.210270  0.639530  0.740940  1.0  0.3495
  C  C768  1  0.482970  0.803730  0.729130  1.0  -0.1158
  C  C769  1  0.469870  0.765430  0.712660  1.0  0.3171
  C  C770  1  0.167770  0.614530  0.758740  1.0  0.0058
  C  C771  1  0.193470  0.594830  0.772880  1.0  -0.1357
  C  C772  1  0.155770  0.573130  0.789500  1.0  0.0964
  C  C773  1  0.421770  0.489930  0.777050  1.0  0.1531
  C  C774  1  0.395670  0.498530  0.760360  1.0  -0.2213
  C  C775  1  0.216770  0.740730  0.698380  1.0  -0.0225
  C  C776  1  0.168370  0.761730  0.702020  1.0  -0.2388
  C  C777  1  0.152570  0.792130  0.687920  1.0  0.1311
  C  C778  1  0.220170  0.780130  0.667160  1.0  0.1447
  C  C779  1  0.238570  0.747330  0.680530  1.0  -0.1647
  C  C780  1  0.876930  0.972870  0.074280  1.0  0.3495
  C  C781  1  0.149630  0.137070  0.062470  1.0  -0.1158
  C  C782  1  0.136530  0.098770  0.046000  1.0  0.3174
  C  C783  1  0.834430  0.947870  0.092080  1.0  0.0058
  C  C784  1  0.860130  0.928170  0.106220  1.0  -0.1357
  C  C785  1  0.822430  0.906470  0.122840  1.0  0.0964
  C  C786  1  0.088430  0.823270  0.110390  1.0  0.1532
  C  C787  1  0.062330  0.831870  0.093700  1.0  -0.2212
  C  C788  1  0.883430  0.074070  0.031720  1.0  -0.0225
  C  C789  1  0.835030  0.095070  0.035360  1.0  -0.2388
  C  C790  1  0.819230  0.125470  0.021260  1.0  0.1305
  C  C791  1  0.886830  0.113470  0.000500  1.0  0.1447
  C  C792  1  0.905230  0.080670  0.013870  1.0  -0.1647
  C  C793  1  0.530400  0.243200  0.816310  1.0  0.3112
  C  C794  1  0.803900  0.317500  0.801610  1.0  -0.1157
  C  C795  1  0.795300  0.357600  0.788740  1.0  0.1967
  C  C796  1  0.480800  0.227900  0.831730  1.0  -0.0053
  C  C797  1  0.505300  0.260300  0.848440  1.0  -0.1866
  C  C798  1  0.459000  0.248100  0.862580  1.0  0.1568
  C  C799  1  0.802400  0.630100  0.844690  1.0  0.144
  C  C800  1  0.768700  0.590700  0.830390  1.0  -0.219
  C  C801  1  0.544100  0.155800  0.773230  1.0  -0.0135
  C  C802  1  0.487300  0.090700  0.773120  1.0  -0.1813
  C  C803  1  0.467900  0.050000  0.757120  1.0  0.1257
  C  C804  1  0.563100  0.127900  0.741660  1.0  0.1489
  C  C805  1  0.584000  0.177500  0.756670  1.0  -0.1745
  C  C806  1  0.197070  0.576530  0.149640  1.0  0.3112
  C  C807  1  0.470570  0.650830  0.134940  1.0  -0.1157
  C  C808  1  0.461970  0.690930  0.122070  1.0  0.1967
  C  C809  1  0.147470  0.561230  0.165060  1.0  -0.0053
  C  C810  1  0.171970  0.593630  0.181770  1.0  -0.1866
  C  C811  1  0.125670  0.581430  0.195910  1.0  0.1568
  C  C812  1  0.469070  0.963430  0.178020  1.0  0.144
  C  C813  1  0.435370  0.924030  0.163720  1.0  -0.219
  C  C814  1  0.210770  0.489130  0.106560  1.0  -0.0135
  C  C815  1  0.153970  0.424030  0.106450  1.0  -0.1813
  C  C816  1  0.134570  0.383330  0.090450  1.0  0.126
  C  C817  1  0.229770  0.461230  0.074990  1.0  0.1489
  C  C818  1  0.250670  0.510830  0.090000  1.0  -0.1745
  C  C819  1  0.863730  0.909870  0.482980  1.0  0.3112
  C  C820  1  0.137230  0.984170  0.468280  1.0  -0.1157
  C  C821  1  0.128630  0.024270  0.455410  1.0  0.1967
  C  C822  1  0.814130  0.894570  0.498400  1.0  -0.0053
  C  C823  1  0.838630  0.926970  0.515110  1.0  -0.1866
  C  C824  1  0.792330  0.914770  0.529250  1.0  0.1568
  C  C825  1  0.135730  0.296770  0.511360  1.0  0.144
  C  C826  1  0.102030  0.257370  0.497060  1.0  -0.219
  C  C827  1  0.877430  0.822470  0.439900  1.0  -0.0135
  C  C828  1  0.820630  0.757370  0.439790  1.0  -0.1813
  C  C829  1  0.801230  0.716670  0.423790  1.0  0.1257
  C  C830  1  0.896430  0.794570  0.408330  1.0  0.1489
  C  C831  1  0.917330  0.844170  0.423340  1.0  -0.1745
  C  C832  1  0.756800  0.287200  0.816310  1.0  0.3087
  C  C833  1  0.682500  0.486400  0.801610  1.0  -0.1129
  C  C834  1  0.642400  0.437700  0.788740  1.0  0.1971
  C  C835  1  0.772100  0.252900  0.831730  1.0  -0.0059
  C  C836  1  0.739700  0.245000  0.848440  1.0  -0.1899
  C  C837  1  0.751900  0.210900  0.862580  1.0  0.1587
  C  C838  1  0.369900  0.172300  0.844690  1.0  0.1463
  C  C839  1  0.409300  0.178000  0.830390  1.0  -0.2172
  C  C840  1  0.844200  0.388300  0.773230  1.0  -0.0105
  C  C841  1  0.909300  0.396600  0.773120  1.0  -0.1777
  C  C842  1  0.950000  0.417900  0.757120  1.0  0.1286
  C  C843  1  0.872100  0.435200  0.741660  1.0  0.1505
  C  C844  1  0.822500  0.406500  0.756670  1.0  -0.175
  C  C845  1  0.423470  0.620530  0.149640  1.0  0.3087
  C  C846  1  0.349170  0.819730  0.134940  1.0  -0.1129
  C  C847  1  0.309070  0.771030  0.122070  1.0  0.1971
  C  C848  1  0.438770  0.586230  0.165060  1.0  -0.0059
  C  C849  1  0.406370  0.578330  0.181770  1.0  -0.1899
  C  C850  1  0.418570  0.544230  0.195910  1.0  0.1587
  C  C851  1  0.036570  0.505630  0.178020  1.0  0.1464
  C  C852  1  0.075970  0.511330  0.163720  1.0  -0.2172
  C  C853  1  0.510870  0.721630  0.106560  1.0  -0.0105
  C  C854  1  0.575970  0.729930  0.106450  1.0  -0.1777
  C  C855  1  0.616670  0.751230  0.090450  1.0  0.1286
  C  C856  1  0.538770  0.768530  0.074990  1.0  0.1505
  C  C857  1  0.489170  0.739830  0.090000  1.0  -0.175
  C  C858  1  0.090130  0.953870  0.482980  1.0  0.3087
  C  C859  1  0.015830  0.153070  0.468280  1.0  -0.1129
  C  C860  1  0.975730  0.104370  0.455410  1.0  0.1971
  C  C861  1  0.105430  0.919570  0.498400  1.0  -0.0059
  C  C862  1  0.073030  0.911670  0.515110  1.0  -0.1899
  C  C863  1  0.085230  0.877570  0.529250  1.0  0.1587
  C  C864  1  0.703230  0.838970  0.511360  1.0  0.1464
  C  C865  1  0.742630  0.844670  0.497060  1.0  -0.2172
  C  C866  1  0.177530  0.054970  0.439900  1.0  -0.0105
  C  C867  1  0.242630  0.063270  0.439790  1.0  -0.1777
  C  C868  1  0.283330  0.084570  0.423790  1.0  0.1286
  C  C869  1  0.205430  0.101870  0.408330  1.0  0.1505
  C  C870  1  0.155830  0.073170  0.423340  1.0  -0.175
  C  C871  1  0.712800  0.469600  0.816310  1.0  0.3122
  C  C872  1  0.513600  0.196100  0.801610  1.0  -0.1112
  C  C873  1  0.562300  0.204700  0.788740  1.0  0.1974
  C  C874  1  0.747100  0.519200  0.831730  1.0  0.0029
  C  C875  1  0.755000  0.494700  0.848440  1.0  -0.1913
  C  C876  1  0.789100  0.541000  0.862580  1.0  0.1574
  C  C877  1  0.827700  0.197600  0.844690  1.0  0.1452
  C  C878  1  0.822000  0.231300  0.830390  1.0  -0.2178
  C  C879  1  0.611700  0.455900  0.773230  1.0  -0.0129
  C  C880  1  0.603400  0.512700  0.773120  1.0  -0.1788
  C  C881  1  0.582100  0.532100  0.757120  1.0  0.1233
  C  C882  1  0.564800  0.436900  0.741660  1.0  0.1512
  C  C883  1  0.593500  0.416000  0.756670  1.0  -0.1699
  C  C884  1  0.379470  0.802930  0.149640  1.0  0.3122
  C  C885  1  0.180270  0.529430  0.134940  1.0  -0.1112
  C  C886  1  0.228970  0.538030  0.122070  1.0  0.1973
  C  C887  1  0.413770  0.852530  0.165060  1.0  0.0029
  C  C888  1  0.421670  0.828030  0.181770  1.0  -0.1913
  C  C889  1  0.455770  0.874330  0.195910  1.0  0.1574
  C  C890  1  0.494370  0.530930  0.178020  1.0  0.1452
  C  C891  1  0.488670  0.564630  0.163720  1.0  -0.2178
  C  C892  1  0.278370  0.789230  0.106560  1.0  -0.013
  C  C893  1  0.270070  0.846030  0.106450  1.0  -0.1788
  C  C894  1  0.248770  0.865430  0.090450  1.0  0.1233
  C  C895  1  0.231470  0.770230  0.074990  1.0  0.1512
  C  C896  1  0.260170  0.749330  0.090000  1.0  -0.1699
  C  C897  1  0.046130  0.136270  0.482980  1.0  0.3122
  C  C898  1  0.846930  0.862770  0.468280  1.0  -0.1112
  C  C899  1  0.895630  0.871370  0.455410  1.0  0.1974
  C  C900  1  0.080430  0.185870  0.498400  1.0  0.0029
  C  C901  1  0.088330  0.161370  0.515110  1.0  -0.1913
  C  C902  1  0.122430  0.207670  0.529250  1.0  0.1574
  C  C903  1  0.161030  0.864270  0.511360  1.0  0.1451
  C  C904  1  0.155330  0.897970  0.497060  1.0  -0.2178
  C  C905  1  0.945030  0.122570  0.439900  1.0  -0.0129
  C  C906  1  0.936730  0.179370  0.439790  1.0  -0.1788
  C  C907  1  0.915430  0.198770  0.423790  1.0  0.1233
  C  C908  1  0.898130  0.103570  0.408330  1.0  0.1512
  C  C909  1  0.926830  0.082670  0.423340  1.0  -0.1699
  C  C910  1  0.756800  0.469600  0.316310  1.0  0.3114
  C  C911  1  0.682500  0.196100  0.301610  1.0  -0.1119
  C  C912  1  0.642400  0.204700  0.288740  1.0  0.1965
  C  C913  1  0.772100  0.519200  0.331730  1.0  -0.0061
  C  C914  1  0.739700  0.494700  0.348440  1.0  -0.1923
  C  C915  1  0.751900  0.541000  0.362580  1.0  0.1568
  C  C916  1  0.369900  0.197600  0.344690  1.0  0.146
  C  C917  1  0.409300  0.231300  0.330390  1.0  -0.2161
  C  C918  1  0.844200  0.455900  0.273230  1.0  -0.0135
  C  C919  1  0.909300  0.512700  0.273120  1.0  -0.179
  C  C920  1  0.950000  0.532100  0.257120  1.0  0.1243
  C  C921  1  0.872100  0.436900  0.241660  1.0  0.1516
  C  C922  1  0.822500  0.416000  0.256670  1.0  -0.1696
  C  C923  1  0.423470  0.802930  0.649640  1.0  0.3114
  C  C924  1  0.349170  0.529430  0.634940  1.0  -0.1119
  C  C925  1  0.309070  0.538030  0.622070  1.0  0.1965
  C  C926  1  0.438770  0.852530  0.665060  1.0  -0.0061
  C  C927  1  0.406370  0.828030  0.681770  1.0  -0.1923
  C  C928  1  0.418570  0.874330  0.695910  1.0  0.1568
  C  C929  1  0.036570  0.530930  0.678020  1.0  0.146
  C  C930  1  0.075970  0.564630  0.663720  1.0  -0.2161
  C  C931  1  0.510870  0.789230  0.606560  1.0  -0.0135
  C  C932  1  0.575970  0.846030  0.606450  1.0  -0.179
  C  C933  1  0.616670  0.865430  0.590450  1.0  0.1246
  C  C934  1  0.538770  0.770230  0.574990  1.0  0.1516
  C  C935  1  0.489170  0.749330  0.590000  1.0  -0.1696
  C  C936  1  0.090130  0.136270  0.982980  1.0  0.3114
  C  C937  1  0.015830  0.862770  0.968280  1.0  -0.1119
  C  C938  1  0.975730  0.871370  0.955410  1.0  0.1965
  C  C939  1  0.105430  0.185870  0.998400  1.0  -0.0061
  C  C940  1  0.073030  0.161370  0.015110  1.0  -0.1923
  C  C941  1  0.085230  0.207670  0.029250  1.0  0.1568
  C  C942  1  0.703230  0.864270  0.011360  1.0  0.146
  C  C943  1  0.742630  0.897970  0.997060  1.0  -0.2161
  C  C944  1  0.177530  0.122570  0.939900  1.0  -0.0135
  C  C945  1  0.242630  0.179370  0.939790  1.0  -0.179
  C  C946  1  0.283330  0.198770  0.923790  1.0  0.1243
  C  C947  1  0.205430  0.103570  0.908330  1.0  0.1516
  C  C948  1  0.155830  0.082670  0.923340  1.0  -0.1696
  C  C949  1  0.712800  0.243200  0.316310  1.0  0.3124
  C  C950  1  0.513600  0.317500  0.301610  1.0  -0.1133
  C  C951  1  0.562300  0.357600  0.288740  1.0  0.1971
  C  C952  1  0.747100  0.227900  0.331730  1.0  -0.0044
  C  C953  1  0.755000  0.260300  0.348440  1.0  -0.1856
  C  C954  1  0.789100  0.248100  0.362580  1.0  0.1569
  C  C955  1  0.827700  0.630100  0.344690  1.0  0.144
  C  C956  1  0.822000  0.590700  0.330390  1.0  -0.219
  C  C957  1  0.611700  0.155800  0.273230  1.0  -0.0126
  C  C958  1  0.603400  0.090700  0.273120  1.0  -0.1814
  C  C959  1  0.582100  0.050000  0.257120  1.0  0.1243
  C  C960  1  0.564800  0.127900  0.241660  1.0  0.1493
  C  C961  1  0.593500  0.177500  0.256670  1.0  -0.1752
  C  C962  1  0.379470  0.576530  0.649640  1.0  0.3124
  C  C963  1  0.180270  0.650830  0.634940  1.0  -0.1133
  C  C964  1  0.228970  0.690930  0.622070  1.0  0.1971
  C  C965  1  0.413770  0.561230  0.665060  1.0  -0.0044
  C  C966  1  0.421670  0.593630  0.681770  1.0  -0.1856
  C  C967  1  0.455770  0.581430  0.695910  1.0  0.1569
  C  C968  1  0.494370  0.963430  0.678020  1.0  0.1441
  C  C969  1  0.488670  0.924030  0.663720  1.0  -0.219
  C  C970  1  0.278370  0.489130  0.606560  1.0  -0.0126
  C  C971  1  0.270070  0.424030  0.606450  1.0  -0.1813
  C  C972  1  0.248770  0.383330  0.590450  1.0  0.1243
  C  C973  1  0.231470  0.461230  0.574990  1.0  0.1493
  C  C974  1  0.260170  0.510830  0.590000  1.0  -0.1752
  C  C975  1  0.046130  0.909870  0.982980  1.0  0.3124
  C  C976  1  0.846930  0.984170  0.968280  1.0  -0.1133
  C  C977  1  0.895630  0.024270  0.955410  1.0  0.1971
  C  C978  1  0.080430  0.894570  0.998400  1.0  -0.0044
  C  C979  1  0.088330  0.926970  0.015110  1.0  -0.1856
  C  C980  1  0.122430  0.914770  0.029250  1.0  0.1569
  C  C981  1  0.161030  0.296770  0.011360  1.0  0.1441
  C  C982  1  0.155330  0.257370  0.997060  1.0  -0.219
  C  C983  1  0.945030  0.822470  0.939900  1.0  -0.0126
  C  C984  1  0.936730  0.757370  0.939790  1.0  -0.1814
  C  C985  1  0.915430  0.716670  0.923790  1.0  0.1243
  C  C986  1  0.898130  0.794570  0.908330  1.0  0.1493
  C  C987  1  0.926830  0.844170  0.923340  1.0  -0.1752
  C  C988  1  0.530400  0.287200  0.316310  1.0  0.3085
  C  C989  1  0.803900  0.486400  0.301610  1.0  -0.1123
  C  C990  1  0.795300  0.437700  0.288740  1.0  0.197
  C  C991  1  0.480800  0.252900  0.331730  1.0  0.0041
  C  C992  1  0.505300  0.245000  0.348440  1.0  -0.19
  C  C993  1  0.459000  0.210900  0.362580  1.0  0.1583
  C  C994  1  0.802400  0.172300  0.344690  1.0  0.1457
  C  C995  1  0.768700  0.178000  0.330390  1.0  -0.2186
  C  C996  1  0.544100  0.388300  0.273230  1.0  -0.0111
  C  C997  1  0.487300  0.396600  0.273120  1.0  -0.178
  C  C998  1  0.467900  0.417900  0.257120  1.0  0.1271
  C  C999  1  0.563100  0.435200  0.241660  1.0  0.1511
  C  C1000  1  0.584000  0.406500  0.256670  1.0  -0.1757
  C  C1001  1  0.197070  0.620530  0.649640  1.0  0.3085
  C  C1002  1  0.470570  0.819730  0.634940  1.0  -0.1123
  C  C1003  1  0.461970  0.771030  0.622070  1.0  0.197
  C  C1004  1  0.147470  0.586230  0.665060  1.0  0.0041
  C  C1005  1  0.171970  0.578330  0.681770  1.0  -0.19
  C  C1006  1  0.125670  0.544230  0.695910  1.0  0.1583
  C  C1007  1  0.469070  0.505630  0.678020  1.0  0.1457
  C  C1008  1  0.435370  0.511330  0.663720  1.0  -0.2186
  C  C1009  1  0.210770  0.721630  0.606560  1.0  -0.0111
  C  C1010  1  0.153970  0.729930  0.606450  1.0  -0.1781
  C  C1011  1  0.134570  0.751230  0.590450  1.0  0.1271
  C  C1012  1  0.229770  0.768530  0.574990  1.0  0.1511
  C  C1013  1  0.250670  0.739830  0.590000  1.0  -0.1757
  C  C1014  1  0.863730  0.953870  0.982980  1.0  0.3085
  C  C1015  1  0.137230  0.153070  0.968280  1.0  -0.1123
  C  C1016  1  0.128630  0.104370  0.955410  1.0  0.197
  C  C1017  1  0.814130  0.919570  0.998400  1.0  0.0041
  C  C1018  1  0.838630  0.911670  0.015110  1.0  -0.19
  C  C1019  1  0.792330  0.877570  0.029250  1.0  0.1583
  C  C1020  1  0.135730  0.838970  0.011360  1.0  0.1456
  C  C1021  1  0.102030  0.844670  0.997060  1.0  -0.2186
  C  C1022  1  0.877430  0.054970  0.939900  1.0  -0.0111
  C  C1023  1  0.820630  0.063270  0.939790  1.0  -0.178
  C  C1024  1  0.801230  0.084570  0.923790  1.0  0.1271
  C  C1025  1  0.896430  0.101870  0.908330  1.0  0.1511
  C  C1026  1  0.917330  0.073170  0.923340  1.0  -0.1757
  C  C1027  1  0.530900  0.231000  0.718740  1.0  0.2619
  C  C1028  1  0.805900  0.324000  0.701990  1.0  -0.1109
  C  C1029  1  0.791900  0.366000  0.689680  1.0  0.2661
  C  C1030  1  0.473800  0.208100  0.732570  1.0  -0.0355
  C  C1031  1  0.488700  0.244800  0.749570  1.0  -0.2007
  C  C1032  1  0.439700  0.226600  0.762030  1.0  0.0947
  C  C1033  1  0.774900  0.639500  0.744400  1.0  0.1183
  C  C1034  1  0.742400  0.588700  0.731050  1.0  -0.1714
  C  C1035  1  0.563400  0.164800  0.673690  1.0  0.0141
  C  C1036  1  0.498300  0.128300  0.664470  1.0  -0.1685
  C  C1037  1  0.494600  0.103300  0.647550  1.0  0.1459
  C  C1038  1  0.604100  0.122400  0.649400  1.0  0.1055
  C  C1039  1  0.614800  0.161000  0.665480  1.0  -0.1347
  C  C1040  1  0.197570  0.564330  0.052070  1.0  0.2619
  C  C1041  1  0.472570  0.657330  0.035320  1.0  -0.1109
  C  C1042  1  0.458570  0.699330  0.023010  1.0  0.2661
  C  C1043  1  0.140470  0.541430  0.065900  1.0  -0.0355
  C  C1044  1  0.155370  0.578130  0.082900  1.0  -0.2007
  C  C1045  1  0.106370  0.559930  0.095360  1.0  0.0947
  C  C1046  1  0.441570  0.972830  0.077730  1.0  0.1183
  C  C1047  1  0.409070  0.922030  0.064380  1.0  -0.1714
  C  C1048  1  0.230070  0.498130  0.007020  1.0  0.0139
  C  C1049  1  0.164970  0.461630  0.997800  1.0  -0.1685
  C  C1050  1  0.161270  0.436630  0.980880  1.0  0.1459
  C  C1051  1  0.270770  0.455730  0.982730  1.0  0.1056
  C  C1052  1  0.281470  0.494330  0.998810  1.0  -0.1347
  C  C1053  1  0.864230  0.897670  0.385410  1.0  0.2619
  C  C1054  1  0.139230  0.990670  0.368660  1.0  -0.1109
  C  C1055  1  0.125230  0.032670  0.356350  1.0  0.2661
  C  C1056  1  0.807130  0.874770  0.399240  1.0  -0.0355
  C  C1057  1  0.822030  0.911470  0.416240  1.0  -0.2007
  C  C1058  1  0.773030  0.893270  0.428700  1.0  0.0947
  C  C1059  1  0.108230  0.306170  0.411070  1.0  0.1183
  C  C1060  1  0.075730  0.255370  0.397720  1.0  -0.1714
  C  C1061  1  0.896730  0.831470  0.340360  1.0  0.0141
  C  C1062  1  0.831630  0.794970  0.331140  1.0  -0.1685
  C  C1063  1  0.827930  0.769970  0.314220  1.0  0.1459
  C  C1064  1  0.937430  0.789070  0.316070  1.0  0.1055
  C  C1065  1  0.948130  0.827670  0.332150  1.0  -0.1347
  C  C1066  1  0.769000  0.299900  0.718740  1.0  0.2594
  C  C1067  1  0.676000  0.481900  0.701990  1.0  -0.1123
  C  C1068  1  0.634000  0.425900  0.689680  1.0  0.2676
  C  C1069  1  0.791900  0.265700  0.732570  1.0  -0.0394
  C  C1070  1  0.755200  0.243900  0.749570  1.0  -0.201
  C  C1071  1  0.773400  0.213100  0.762030  1.0  0.0966
  C  C1072  1  0.360500  0.135400  0.744400  1.0  0.1153
  C  C1073  1  0.411300  0.153700  0.731050  1.0  -0.1642
  C  C1074  1  0.835200  0.398600  0.673690  1.0  0.0138
  C  C1075  1  0.871700  0.370000  0.664470  1.0  -0.1692
  C  C1076  1  0.896700  0.391300  0.647550  1.0  0.1446
  C  C1077  1  0.877600  0.481700  0.649400  1.0  0.1057
  C  C1078  1  0.839000  0.453800  0.665480  1.0  -0.1379
  C  C1079  1  0.435670  0.633230  0.052070  1.0  0.2594
  C  C1080  1  0.342670  0.815230  0.035320  1.0  -0.1123
  C  C1081  1  0.300670  0.759230  0.023010  1.0  0.2676
  C  C1082  1  0.458570  0.599030  0.065900  1.0  -0.0394
  C  C1083  1  0.421870  0.577230  0.082900  1.0  -0.201
  C  C1084  1  0.440070  0.546430  0.095360  1.0  0.0967
  C  C1085  1  0.027170  0.468730  0.077730  1.0  0.1153
  C  C1086  1  0.077970  0.487030  0.064380  1.0  -0.1642
  C  C1087  1  0.501870  0.731930  0.007020  1.0  0.0138
  C  C1088  1  0.538370  0.703330  0.997800  1.0  -0.1692
  C  C1089  1  0.563370  0.724630  0.980880  1.0  0.1446
  C  C1090  1  0.544270  0.815030  0.982730  1.0  0.1058
  C  C1091  1  0.505670  0.787130  0.998810  1.0  -0.1379
  C  C1092  1  0.102330  0.966570  0.385410  1.0  0.2594
  C  C1093  1  0.009330  0.148570  0.368660  1.0  -0.1123
  C  C1094  1  0.967330  0.092570  0.356350  1.0  0.2676
  C  C1095  1  0.125230  0.932370  0.399240  1.0  -0.0394
  C  C1096  1  0.088530  0.910570  0.416240  1.0  -0.201
  C  C1097  1  0.106730  0.879770  0.428700  1.0  0.0966
  C  C1098  1  0.693830  0.802070  0.411070  1.0  0.1153
  C  C1099  1  0.744630  0.820370  0.397720  1.0  -0.1642
  C  C1100  1  0.168530  0.065270  0.340360  1.0  0.0138
  C  C1101  1  0.205030  0.036670  0.331140  1.0  -0.1692
  C  C1102  1  0.230030  0.057970  0.314220  1.0  0.1446
  C  C1103  1  0.210930  0.148370  0.316070  1.0  0.1057
  C  C1104  1  0.172330  0.120470  0.332150  1.0  -0.1379
  C  C1105  1  0.700100  0.469100  0.718740  1.0  0.2601
  C  C1106  1  0.518100  0.194100  0.701990  1.0  -0.108
  C  C1107  1  0.574100  0.208100  0.689680  1.0  0.2673
  C  C1108  1  0.734300  0.526200  0.732570  1.0  -0.0373
  C  C1109  1  0.756100  0.511300  0.749570  1.0  -0.2028
  C  C1110  1  0.786900  0.560300  0.762030  1.0  0.0956
  C  C1111  1  0.864600  0.225100  0.744400  1.0  0.1184
  C  C1112  1  0.846300  0.257600  0.731050  1.0  -0.1628
  C  C1113  1  0.601400  0.436600  0.673690  1.0  0.0141
  C  C1114  1  0.630000  0.501700  0.664470  1.0  -0.1688
  C  C1115  1  0.608700  0.505400  0.647550  1.0  0.1403
  C  C1116  1  0.518300  0.395900  0.649400  1.0  0.1021
  C  C1117  1  0.546200  0.385200  0.665480  1.0  -0.1363
  C  C1118  1  0.366770  0.802430  0.052070  1.0  0.2601
  C  C1119  1  0.184770  0.527430  0.035320  1.0  -0.108
  C  C1120  1  0.240770  0.541430  0.023010  1.0  0.2673
  C  C1121  1  0.400970  0.859530  0.065900  1.0  -0.0373
  C  C1122  1  0.422770  0.844630  0.082900  1.0  -0.2028
  C  C1123  1  0.453570  0.893630  0.095360  1.0  0.0956
  C  C1124  1  0.531270  0.558430  0.077730  1.0  0.1184
  C  C1125  1  0.512970  0.590930  0.064380  1.0  -0.1628
  C  C1126  1  0.268070  0.769930  0.007020  1.0  0.0141
  C  C1127  1  0.296670  0.835030  0.997800  1.0  -0.1688
  C  C1128  1  0.275370  0.838730  0.980880  1.0  0.1403
  C  C1129  1  0.184970  0.729230  0.982730  1.0  0.1021
  C  C1130  1  0.212870  0.718530  0.998810  1.0  -0.1363
  C  C1131  1  0.033430  0.135770  0.385410  1.0  0.2601
  C  C1132  1  0.851430  0.860770  0.368660  1.0  -0.108
  C  C1133  1  0.907430  0.874770  0.356350  1.0  0.2673
  C  C1134  1  0.067630  0.192870  0.399240  1.0  -0.0373
  C  C1135  1  0.089430  0.177970  0.416240  1.0  -0.2028
  C  C1136  1  0.120230  0.226970  0.428700  1.0  0.0956
  C  C1137  1  0.197930  0.891770  0.411070  1.0  0.1184
  C  C1138  1  0.179630  0.924270  0.397720  1.0  -0.1628
  C  C1139  1  0.934730  0.103270  0.340360  1.0  0.0141
  C  C1140  1  0.963330  0.168370  0.331140  1.0  -0.1688
  C  C1141  1  0.942030  0.172070  0.314220  1.0  0.1403
  C  C1142  1  0.851630  0.062570  0.316070  1.0  0.1021
  C  C1143  1  0.879530  0.051870  0.332150  1.0  -0.1363
  C  C1144  1  0.769000  0.469100  0.218740  1.0  0.2588
  C  C1145  1  0.676000  0.194100  0.201990  1.0  -0.1071
  C  C1146  1  0.634000  0.208100  0.189680  1.0  0.2679
  C  C1147  1  0.791900  0.526200  0.232570  1.0  -0.0381
  C  C1148  1  0.755200  0.511300  0.249570  1.0  -0.2029
  C  C1149  1  0.773400  0.560300  0.262030  1.0  0.0947
  C  C1150  1  0.360500  0.225100  0.244400  1.0  0.1174
  C  C1151  1  0.411300  0.257600  0.231050  1.0  -0.1623
  C  C1152  1  0.835200  0.436600  0.173690  1.0  0.0141
  C  C1153  1  0.871700  0.501700  0.164470  1.0  -0.1703
  C  C1154  1  0.896700  0.505400  0.147550  1.0  0.141
  C  C1155  1  0.877600  0.395900  0.149400  1.0  0.1022
  C  C1156  1  0.839000  0.385200  0.165480  1.0  -0.1357
  C  C1157  1  0.435670  0.802430  0.552070  1.0  0.2588
  C  C1158  1  0.342670  0.527430  0.535320  1.0  -0.1071
  C  C1159  1  0.300670  0.541430  0.523010  1.0  0.2679
  C  C1160  1  0.458570  0.859530  0.565900  1.0  -0.0381
  C  C1161  1  0.421870  0.844630  0.582900  1.0  -0.2029
  C  C1162  1  0.440070  0.893630  0.595360  1.0  0.0948
  C  C1163  1  0.027170  0.558430  0.577730  1.0  0.1174
  C  C1164  1  0.077970  0.590930  0.564380  1.0  -0.1623
  C  C1165  1  0.501870  0.769930  0.507020  1.0  0.0139
  C  C1166  1  0.538370  0.835030  0.497800  1.0  -0.1703
  C  C1167  1  0.563370  0.838730  0.480880  1.0  0.141
  C  C1168  1  0.544270  0.729230  0.482730  1.0  0.1022
  C  C1169  1  0.505670  0.718530  0.498810  1.0  -0.1358
  C  C1170  1  0.102330  0.135770  0.885410  1.0  0.2588
  C  C1171  1  0.009330  0.860770  0.868660  1.0  -0.1071
  C  C1172  1  0.967330  0.874770  0.856350  1.0  0.2679
  C  C1173  1  0.125230  0.192870  0.899240  1.0  -0.0381
  C  C1174  1  0.088530  0.177970  0.916240  1.0  -0.2029
  C  C1175  1  0.106730  0.226970  0.928700  1.0  0.0947
  C  C1176  1  0.693830  0.891770  0.911070  1.0  0.1174
  C  C1177  1  0.744630  0.924270  0.897720  1.0  -0.1623
  C  C1178  1  0.168530  0.103270  0.840360  1.0  0.0141
  C  C1179  1  0.205030  0.168370  0.831140  1.0  -0.1703
  C  C1180  1  0.230030  0.172070  0.814220  1.0  0.141
  C  C1181  1  0.210930  0.062570  0.816070  1.0  0.1022
  C  C1182  1  0.172330  0.051870  0.832150  1.0  -0.1357
  C  C1183  1  0.700100  0.231000  0.218740  1.0  0.2626
  C  C1184  1  0.518100  0.324000  0.201990  1.0  -0.1096
  C  C1185  1  0.574100  0.366000  0.189680  1.0  0.2652
  C  C1186  1  0.734300  0.208100  0.232570  1.0  -0.037
  C  C1187  1  0.756100  0.244800  0.249570  1.0  -0.1992
  C  C1188  1  0.786900  0.226600  0.262030  1.0  0.0935
  C  C1189  1  0.864600  0.639500  0.244400  1.0  0.1179
  C  C1190  1  0.846300  0.588700  0.231050  1.0  -0.1702
  C  C1191  1  0.601400  0.164800  0.173690  1.0  0.0142
  C  C1192  1  0.630000  0.128300  0.164470  1.0  -0.1654
  C  C1193  1  0.608700  0.103300  0.147550  1.0  0.1465
  C  C1194  1  0.518300  0.122400  0.149400  1.0  0.1051
  C  C1195  1  0.546200  0.161000  0.165480  1.0  -0.1362
  C  C1196  1  0.366770  0.564330  0.552070  1.0  0.2626
  C  C1197  1  0.184770  0.657330  0.535320  1.0  -0.1096
  C  C1198  1  0.240770  0.699330  0.523010  1.0  0.2652
  C  C1199  1  0.400970  0.541430  0.565900  1.0  -0.037
  C  C1200  1  0.422770  0.578130  0.582900  1.0  -0.1992
  C  C1201  1  0.453570  0.559930  0.595360  1.0  0.0935
  C  C1202  1  0.531270  0.972830  0.577730  1.0  0.1179
  C  C1203  1  0.512970  0.922030  0.564380  1.0  -0.1701
  C  C1204  1  0.268070  0.498130  0.507020  1.0  0.0142
  C  C1205  1  0.296670  0.461630  0.497800  1.0  -0.1654
  C  C1206  1  0.275370  0.436630  0.480880  1.0  0.1465
  C  C1207  1  0.184970  0.455730  0.482730  1.0  0.1052
  C  C1208  1  0.212870  0.494330  0.498810  1.0  -0.1363
  C  C1209  1  0.033430  0.897670  0.885410  1.0  0.2626
  C  C1210  1  0.851430  0.990670  0.868660  1.0  -0.1096
  C  C1211  1  0.907430  0.032670  0.856350  1.0  0.2652
  C  C1212  1  0.067630  0.874770  0.899240  1.0  -0.037
  C  C1213  1  0.089430  0.911470  0.916240  1.0  -0.1992
  C  C1214  1  0.120230  0.893270  0.928700  1.0  0.0935
  C  C1215  1  0.197930  0.306170  0.911070  1.0  0.1179
  C  C1216  1  0.179630  0.255370  0.897720  1.0  -0.1702
  C  C1217  1  0.934730  0.831470  0.840360  1.0  0.0142
  C  C1218  1  0.963330  0.794970  0.831140  1.0  -0.1654
  C  C1219  1  0.942030  0.769970  0.814220  1.0  0.1465
  C  C1220  1  0.851630  0.789070  0.816070  1.0  0.1051
  C  C1221  1  0.879530  0.827670  0.832150  1.0  -0.1362
  C  C1222  1  0.530900  0.299900  0.218740  1.0  0.2596
  C  C1223  1  0.805900  0.481900  0.201990  1.0  -0.1106
  C  C1224  1  0.791900  0.425900  0.189680  1.0  0.2671
  C  C1225  1  0.473800  0.265700  0.232570  1.0  -0.0356
  C  C1226  1  0.488700  0.243900  0.249570  1.0  -0.2027
  C  C1227  1  0.439700  0.213100  0.262030  1.0  0.0954
  C  C1228  1  0.774900  0.135400  0.244400  1.0  0.1139
  C  C1229  1  0.742400  0.153700  0.231050  1.0  -0.1649
  C  C1230  1  0.563400  0.398600  0.173690  1.0  0.0139
  C  C1231  1  0.498300  0.370000  0.164470  1.0  -0.1697
  C  C1232  1  0.494600  0.391300  0.147550  1.0  0.1455
  C  C1233  1  0.604100  0.481700  0.149400  1.0  0.1059
  C  C1234  1  0.614800  0.453800  0.165480  1.0  -0.1368
  C  C1235  1  0.197570  0.633230  0.552070  1.0  0.2596
  C  C1236  1  0.472570  0.815230  0.535320  1.0  -0.1106
  C  C1237  1  0.458570  0.759230  0.523010  1.0  0.2671
  C  C1238  1  0.140470  0.599030  0.565900  1.0  -0.0356
  C  C1239  1  0.155370  0.577230  0.582900  1.0  -0.2027
  C  C1240  1  0.106370  0.546430  0.595360  1.0  0.0954
  C  C1241  1  0.441570  0.468730  0.577730  1.0  0.1139
  C  C1242  1  0.409070  0.487030  0.564380  1.0  -0.1649
  C  C1243  1  0.230070  0.731930  0.507020  1.0  0.0139
  C  C1244  1  0.164970  0.703330  0.497800  1.0  -0.1697
  C  C1245  1  0.161270  0.724630  0.480880  1.0  0.1454
  C  C1246  1  0.270770  0.815030  0.482730  1.0  0.1058
  C  C1247  1  0.281470  0.787130  0.498810  1.0  -0.1368
  C  C1248  1  0.864230  0.966570  0.885410  1.0  0.2596
  C  C1249  1  0.139230  0.148570  0.868660  1.0  -0.1106
  C  C1250  1  0.125230  0.092570  0.856350  1.0  0.2671
  C  C1251  1  0.807130  0.932370  0.899240  1.0  -0.0356
  C  C1252  1  0.822030  0.910570  0.916240  1.0  -0.2027
  C  C1253  1  0.773030  0.879770  0.928700  1.0  0.0954
  C  C1254  1  0.108230  0.802070  0.911070  1.0  0.1139
  C  C1255  1  0.075730  0.820370  0.897720  1.0  -0.1649
  C  C1256  1  0.896730  0.065270  0.840360  1.0  0.0139
  C  C1257  1  0.831630  0.036670  0.831140  1.0  -0.1697
  C  C1258  1  0.827930  0.057970  0.814220  1.0  0.1455
  C  C1259  1  0.937430  0.148370  0.816070  1.0  0.1059
  C  C1260  1  0.948130  0.120470  0.832150  1.0  -0.1368
  N  N1261  1  0.421900  0.199700  0.956450  1.0  -0.3065
  N  N1262  1  0.509000  0.042600  0.837120  1.0  -0.3425
  N  N1263  1  0.088570  0.533030  0.289780  1.0  -0.3065
  N  N1264  1  0.175670  0.375930  0.170450  1.0  -0.3423
  N  N1265  1  0.755230  0.866370  0.623120  1.0  -0.3065
  N  N1266  1  0.842330  0.709270  0.503790  1.0  -0.3421
  N  N1267  1  0.800300  0.222200  0.956450  1.0  -0.3067
  N  N1268  1  0.957400  0.466400  0.837120  1.0  -0.3496
  N  N1269  1  0.466970  0.555530  0.289780  1.0  -0.3067
  N  N1270  1  0.624070  0.799730  0.170450  1.0  -0.3495
  N  N1271  1  0.133630  0.888870  0.623120  1.0  -0.3067
  N  N1272  1  0.290730  0.133070  0.503790  1.0  -0.3494
  N  N1273  1  0.777800  0.578100  0.956450  1.0  -0.3071
  N  N1274  1  0.533600  0.491000  0.837120  1.0  -0.3446
  N  N1275  1  0.444470  0.911430  0.289780  1.0  -0.307
  N  N1276  1  0.200270  0.824330  0.170450  1.0  -0.3448
  N  N1277  1  0.111130  0.244770  0.623120  1.0  -0.3071
  N  N1278  1  0.866930  0.157670  0.503790  1.0  -0.3442
  N  N1279  1  0.800300  0.578100  0.456450  1.0  -0.307
  N  N1280  1  0.957400  0.491000  0.337120  1.0  -0.3495
  N  N1281  1  0.466970  0.911430  0.789780  1.0  -0.307
  N  N1282  1  0.624070  0.824330  0.670450  1.0  -0.3493
  N  N1283  1  0.133630  0.244770  0.123120  1.0  -0.307
  N  N1284  1  0.290730  0.157670  0.003790  1.0  -0.349
  N  N1285  1  0.777800  0.199700  0.456450  1.0  -0.3064
  N  N1286  1  0.533600  0.042600  0.337120  1.0  -0.3426
  N  N1287  1  0.444470  0.533030  0.789780  1.0  -0.3064
  N  N1288  1  0.200270  0.375930  0.670450  1.0  -0.3426
  N  N1289  1  0.111130  0.866370  0.123120  1.0  -0.3064
  N  N1290  1  0.866930  0.709270  0.003790  1.0  -0.3425
  N  N1291  1  0.421900  0.222200  0.456450  1.0  -0.3076
  N  N1292  1  0.509000  0.466400  0.337120  1.0  -0.3449
  N  N1293  1  0.088570  0.555530  0.789780  1.0  -0.3075
  N  N1294  1  0.175670  0.799730  0.670450  1.0  -0.3451
  N  N1295  1  0.755230  0.888870  0.123120  1.0  -0.3075
  N  N1296  1  0.842330  0.133070  0.003790  1.0  -0.3445
  N  N1297  1  0.393700  0.204400  0.861110  1.0  -0.3312
  N  N1298  1  0.510700  0.067600  0.742410  1.0  -0.3178
  N  N1299  1  0.060370  0.537730  0.194440  1.0  -0.3312
  N  N1300  1  0.177370  0.400930  0.075740  1.0  -0.3177
  N  N1301  1  0.727030  0.871070  0.527780  1.0  -0.3312
  N  N1302  1  0.844030  0.734270  0.409080  1.0  -0.3178
  N  N1303  1  0.795600  0.189300  0.861110  1.0  -0.332
  N  N1304  1  0.932400  0.443100  0.742410  1.0  -0.3156
  N  N1305  1  0.462270  0.522630  0.194440  1.0  -0.332
  N  N1306  1  0.599070  0.776430  0.075740  1.0  -0.3155
  N  N1307  1  0.128930  0.855970  0.527780  1.0  -0.3322
  N  N1308  1  0.265730  0.109770  0.409080  1.0  -0.3156
  N  N1309  1  0.810700  0.606300  0.861110  1.0  -0.333
  N  N1310  1  0.556900  0.489300  0.742410  1.0  -0.3168
  N  N1311  1  0.477370  0.939630  0.194440  1.0  -0.333
  N  N1312  1  0.223570  0.822630  0.075740  1.0  -0.3166
  N  N1313  1  0.144030  0.272970  0.527780  1.0  -0.333
  N  N1314  1  0.890230  0.155970  0.409080  1.0  -0.3168
  N  N1315  1  0.795600  0.606300  0.361110  1.0  -0.3314
  N  N1316  1  0.932400  0.489300  0.242410  1.0  -0.3164
  N  N1317  1  0.462270  0.939630  0.694440  1.0  -0.3314
  N  N1318  1  0.599070  0.822630  0.575740  1.0  -0.3162
  N  N1319  1  0.128930  0.272970  0.027780  1.0  -0.3314
  N  N1320  1  0.265730  0.155970  0.909080  1.0  -0.3164
  N  N1321  1  0.810700  0.204400  0.361110  1.0  -0.3349
  N  N1322  1  0.556900  0.067600  0.242410  1.0  -0.3183
  N  N1323  1  0.477370  0.537730  0.694440  1.0  -0.3349
  N  N1324  1  0.223570  0.400930  0.575740  1.0  -0.3182
  N  N1325  1  0.144030  0.871070  0.027780  1.0  -0.335
  N  N1326  1  0.890230  0.734270  0.909080  1.0  -0.3183
  N  N1327  1  0.393700  0.189300  0.361110  1.0  -0.3305
  N  N1328  1  0.510700  0.443100  0.242410  1.0  -0.3144
  N  N1329  1  0.060370  0.522630  0.694440  1.0  -0.3305
  N  N1330  1  0.177370  0.776430  0.575740  1.0  -0.3142
  N  N1331  1  0.727030  0.855970  0.027780  1.0  -0.3305
  N  N1332  1  0.844030  0.109770  0.909080  1.0  -0.3144
  N  N1333  1  0.373700  0.172400  0.759330  1.0  -0.3777
  N  N1334  1  0.543000  0.089900  0.640470  1.0  -0.3195
  N  N1335  1  0.040370  0.505730  0.092660  1.0  -0.3777
  N  N1336  1  0.209670  0.423230  0.973800  1.0  -0.3187
  N  N1337  1  0.707030  0.839070  0.426000  1.0  -0.3778
  N  N1338  1  0.876330  0.756570  0.307140  1.0  -0.3195
  N  N1339  1  0.827600  0.201300  0.759330  1.0  -0.3758
  N  N1340  1  0.910100  0.453100  0.640470  1.0  -0.3125
  N  N1341  1  0.494270  0.534630  0.092660  1.0  -0.3758
  N  N1342  1  0.576770  0.786430  0.973800  1.0  -0.3175
  N  N1343  1  0.160930  0.867970  0.426000  1.0  -0.3758
  N  N1344  1  0.243430  0.119770  0.307140  1.0  -0.3125
  N  N1345  1  0.798700  0.626300  0.759330  1.0  -0.376
  N  N1346  1  0.546900  0.457000  0.640470  1.0  -0.3182
  N  N1347  1  0.465370  0.959630  0.092660  1.0  -0.376
  N  N1348  1  0.213570  0.790330  0.973800  1.0  -0.3141
  N  N1349  1  0.132030  0.292970  0.426000  1.0  -0.3761
  N  N1350  1  0.880230  0.123670  0.307140  1.0  -0.3182
  N  N1351  1  0.827600  0.626300  0.259330  1.0  -0.3727
  N  N1352  1  0.910100  0.457000  0.140470  1.0  -0.3175
  N  N1353  1  0.494270  0.959630  0.592660  1.0  -0.3727
  N  N1354  1  0.576770  0.790330  0.473800  1.0  -0.3165
  N  N1355  1  0.160930  0.292970  0.926000  1.0  -0.3728
  N  N1356  1  0.243430  0.123670  0.807140  1.0  -0.3175
  N  N1357  1  0.798700  0.172400  0.259330  1.0  -0.3801
  N  N1358  1  0.546900  0.089900  0.140470  1.0  -0.3147
  N  N1359  1  0.465370  0.505730  0.592660  1.0  -0.3801
  N  N1360  1  0.213570  0.423230  0.473800  1.0  -0.3198
  N  N1361  1  0.132030  0.839070  0.926000  1.0  -0.3801
  N  N1362  1  0.880230  0.756570  0.807140  1.0  -0.3147
  N  N1363  1  0.373700  0.201300  0.259330  1.0  -0.3779
  N  N1364  1  0.543000  0.453100  0.140470  1.0  -0.318
  N  N1365  1  0.040370  0.534630  0.592660  1.0  -0.3779
  N  N1366  1  0.209670  0.786430  0.473800  1.0  -0.314
  N  N1367  1  0.707030  0.867970  0.926000  1.0  -0.378
  N  N1368  1  0.876330  0.119770  0.807140  1.0  -0.318
  O  O1369  1  0.590430  0.298740  0.905610  1.0  -0.5927
  O  O1370  1  0.745450  0.366180  0.874980  1.0  -0.6309
  O  O1371  1  0.257100  0.632070  0.238940  1.0  -0.5927
  O  O1372  1  0.412120  0.699510  0.208310  1.0  -0.6309
  O  O1373  1  0.923760  0.965410  0.572280  1.0  -0.5923
  O  O1374  1  0.078780  0.032850  0.541650  1.0  -0.6309
  O  O1375  1  0.701260  0.291690  0.905610  1.0  -0.5917
  O  O1376  1  0.633820  0.379270  0.874980  1.0  -0.6336
  O  O1377  1  0.367930  0.625020  0.238940  1.0  -0.5915
  O  O1378  1  0.300490  0.712600  0.208310  1.0  -0.6336
  O  O1379  1  0.034590  0.958360  0.572280  1.0  -0.5917
  O  O1380  1  0.967150  0.045940  0.541650  1.0  -0.6336
  O  O1381  1  0.708310  0.409570  0.905610  1.0  -0.5921
  O  O1382  1  0.620730  0.254550  0.874980  1.0  -0.6318
  O  O1383  1  0.374980  0.742900  0.238940  1.0  -0.5921
  O  O1384  1  0.287400  0.587880  0.208310  1.0  -0.6318
  O  O1385  1  0.041640  0.076240  0.572280  1.0  -0.5917
  O  O1386  1  0.954060  0.921220  0.541650  1.0  -0.6318
  O  O1387  1  0.701260  0.409570  0.405610  1.0  -0.592
  O  O1388  1  0.633820  0.254550  0.374980  1.0  -0.6321
  O  O1389  1  0.367930  0.742900  0.738940  1.0  -0.5919
  O  O1390  1  0.300490  0.587880  0.708310  1.0  -0.6321
  O  O1391  1  0.034590  0.076240  0.072280  1.0  -0.5916
  O  O1392  1  0.967150  0.921220  0.041650  1.0  -0.6321
  O  O1393  1  0.708310  0.298740  0.405610  1.0  -0.5919
  O  O1394  1  0.620730  0.366180  0.374980  1.0  -0.6325
  O  O1395  1  0.374980  0.632070  0.738940  1.0  -0.5917
  O  O1396  1  0.287400  0.699510  0.708310  1.0  -0.6325
  O  O1397  1  0.041640  0.965410  0.072280  1.0  -0.5919
  O  O1398  1  0.954060  0.032850  0.041650  1.0  -0.6325
  O  O1399  1  0.590430  0.291690  0.405610  1.0  -0.5917
  O  O1400  1  0.745450  0.379270  0.374980  1.0  -0.6326
  O  O1401  1  0.257100  0.625020  0.738940  1.0  -0.5917
  O  O1402  1  0.412120  0.712600  0.708310  1.0  -0.6326
  O  O1403  1  0.923760  0.958360  0.072280  1.0  -0.5913
  O  O1404  1  0.078780  0.045940  0.041650  1.0  -0.6326
  O  O1405  1  0.589900  0.297300  0.818250  1.0  -0.6127
  O  O1406  1  0.743400  0.367600  0.787070  1.0  -0.6255
  O  O1407  1  0.256570  0.630630  0.151580  1.0  -0.6127
  O  O1408  1  0.410070  0.700930  0.120400  1.0  -0.6255
  O  O1409  1  0.923230  0.963970  0.484920  1.0  -0.6128
  O  O1410  1  0.076730  0.034270  0.453740  1.0  -0.6255
  O  O1411  1  0.702700  0.292600  0.818250  1.0  -0.6125
  O  O1412  1  0.632400  0.375800  0.787070  1.0  -0.6269
  O  O1413  1  0.369370  0.625930  0.151580  1.0  -0.6125
  O  O1414  1  0.299070  0.709130  0.120400  1.0  -0.6269
  O  O1415  1  0.036030  0.959270  0.484920  1.0  -0.6126
  O  O1416  1  0.965730  0.042470  0.453740  1.0  -0.627
  O  O1417  1  0.707400  0.410100  0.818250  1.0  -0.6123
  O  O1418  1  0.624200  0.256600  0.787070  1.0  -0.6261
  O  O1419  1  0.374070  0.743430  0.151580  1.0  -0.6124
  O  O1420  1  0.290870  0.589930  0.120400  1.0  -0.626
  O  O1421  1  0.040730  0.076770  0.484920  1.0  -0.6123
  O  O1422  1  0.957530  0.923270  0.453740  1.0  -0.6261
  O  O1423  1  0.702700  0.410100  0.318250  1.0  -0.6124
  O  O1424  1  0.632400  0.256600  0.287070  1.0  -0.6265
  O  O1425  1  0.369370  0.743430  0.651580  1.0  -0.6124
  O  O1426  1  0.299070  0.589930  0.620400  1.0  -0.6264
  O  O1427  1  0.036030  0.076770  0.984920  1.0  -0.6126
  O  O1428  1  0.965730  0.923270  0.953740  1.0  -0.6265
  O  O1429  1  0.707400  0.297300  0.318250  1.0  -0.6132
  O  O1430  1  0.624200  0.367600  0.287070  1.0  -0.6264
  O  O1431  1  0.374070  0.630630  0.651580  1.0  -0.6132
  O  O1432  1  0.290870  0.700930  0.620400  1.0  -0.6264
  O  O1433  1  0.040730  0.963970  0.984920  1.0  -0.6133
  O  O1434  1  0.957530  0.034270  0.953740  1.0  -0.6264
  O  O1435  1  0.589900  0.292600  0.318250  1.0  -0.6131
  O  O1436  1  0.743400  0.375800  0.287070  1.0  -0.6263
  O  O1437  1  0.256570  0.625930  0.651580  1.0  -0.6132
  O  O1438  1  0.410070  0.709130  0.620400  1.0  -0.6262
  O  O1439  1  0.923230  0.959270  0.984920  1.0  -0.6131
  O  O1440  1  0.076730  0.042470  0.953740  1.0  -0.6263
  O  O1441  1  0.588090  0.284910  0.722930  1.0  -0.6253
  O  O1442  1  0.743110  0.378100  0.691970  1.0  -0.6081
  O  O1443  1  0.254760  0.618240  0.056260  1.0  -0.6253
  O  O1444  1  0.409780  0.711430  0.025300  1.0  -0.608
  O  O1445  1  0.921420  0.951580  0.389600  1.0  -0.6253
  O  O1446  1  0.076440  0.044770  0.358640  1.0  -0.6081
  O  O1447  1  0.715090  0.303180  0.722930  1.0  -0.6242
  O  O1448  1  0.621900  0.365010  0.691970  1.0  -0.6099
  O  O1449  1  0.381760  0.636510  0.056260  1.0  -0.6242
  O  O1450  1  0.288570  0.698340  0.025300  1.0  -0.6099
  O  O1451  1  0.048420  0.969850  0.389600  1.0  -0.6242
  O  O1452  1  0.955230  0.031680  0.358640  1.0  -0.6097
  O  O1453  1  0.696820  0.411910  0.722930  1.0  -0.6241
  O  O1454  1  0.634990  0.256890  0.691970  1.0  -0.609
  O  O1455  1  0.363490  0.745240  0.056260  1.0  -0.6241
  O  O1456  1  0.301660  0.590220  0.025300  1.0  -0.609
  O  O1457  1  0.030150  0.078580  0.389600  1.0  -0.6241
  O  O1458  1  0.968320  0.923560  0.358640  1.0  -0.6089
  O  O1459  1  0.715090  0.411910  0.222930  1.0  -0.6238
  O  O1460  1  0.621900  0.256890  0.191970  1.0  -0.6094
  O  O1461  1  0.381760  0.745240  0.556260  1.0  -0.6238
  O  O1462  1  0.288570  0.590220  0.525300  1.0  -0.6092
  O  O1463  1  0.048420  0.078580  0.889600  1.0  -0.6238
  O  O1464  1  0.955230  0.923560  0.858640  1.0  -0.6094
  O  O1465  1  0.696820  0.284910  0.222930  1.0  -0.6252
  O  O1466  1  0.634990  0.378100  0.191970  1.0  -0.6089
  O  O1467  1  0.363490  0.618240  0.556260  1.0  -0.6252
  O  O1468  1  0.301660  0.711430  0.525300  1.0  -0.6089
  O  O1469  1  0.030150  0.951580  0.889600  1.0  -0.6252
  O  O1470  1  0.968320  0.044770  0.858640  1.0  -0.6087
  O  O1471  1  0.588090  0.303180  0.222930  1.0  -0.6258
  O  O1472  1  0.743110  0.365010  0.191970  1.0  -0.6098
  O  O1473  1  0.254760  0.636510  0.556260  1.0  -0.6258
  O  O1474  1  0.409780  0.698340  0.525300  1.0  -0.6098
  O  O1475  1  0.921420  0.969850  0.889600  1.0  -0.6258
  O  O1476  1  0.076440  0.031680  0.858640  1.0  -0.6096
