# generated using pymatgen
data_ZnMo12(P3O17)2
_symmetry_space_group_name_H-M   'P 1'
_cell_length_a   39.73790000
_cell_length_b   39.73790000
_cell_length_c   39.73790000
_cell_angle_alpha   90.00000000
_cell_angle_beta   90.00000000
_cell_angle_gamma   90.00000000
_symmetry_Int_Tables_number   1
_chemical_formula_structural   ZnMo12(P3O17)2
_chemical_formula_sum   'Zn24 Mo288 P144 O816'
_cell_volume   62750.14556387
_cell_formula_units_Z   24
loop_
 _symmetry_equiv_pos_site_id
 _symmetry_equiv_pos_as_xyz
  1  'x, y, z'
loop_
 _atom_site_type_symbol
 _atom_site_label
 _atom_site_symmetry_multiplicity
 _atom_site_fract_x
 _atom_site_fract_y
 _atom_site_fract_z
 _atom_site_occupancy
 _atom_site_charge
  Zn  Zn1  1  0.250000  0.375000  0.000000  1.0  1.237
  Zn  Zn2  1  0.250000  0.625000  0.500000  1.0  1.237
  Zn  Zn3  1  0.750000  0.875000  0.500000  1.0  1.237
  Zn  Zn4  1  0.750000  0.125000  0.000000  1.0  1.237
  Zn  Zn5  1  0.000000  0.250000  0.375000  1.0  1.237
  Zn  Zn6  1  0.500000  0.250000  0.625000  1.0  1.237
  Zn  Zn7  1  0.500000  0.750000  0.875000  1.0  1.237
  Zn  Zn8  1  0.000000  0.750000  0.125000  1.0  1.237
  Zn  Zn9  1  0.375000  0.000000  0.250000  1.0  1.237
  Zn  Zn10  1  0.625000  0.500000  0.250000  1.0  1.237
  Zn  Zn11  1  0.875000  0.500000  0.750000  1.0  1.237
  Zn  Zn12  1  0.125000  0.000000  0.750000  1.0  1.237
  Zn  Zn13  1  0.125000  0.500000  0.250000  1.0  1.237
  Zn  Zn14  1  0.375000  0.500000  0.750000  1.0  1.237
  Zn  Zn15  1  0.625000  0.000000  0.750000  1.0  1.237
  Zn  Zn16  1  0.875000  0.000000  0.250000  1.0  1.237
  Zn  Zn17  1  0.000000  0.250000  0.875000  1.0  1.237
  Zn  Zn18  1  0.000000  0.750000  0.625000  1.0  1.237
  Zn  Zn19  1  0.500000  0.750000  0.375000  1.0  1.237
  Zn  Zn20  1  0.500000  0.250000  0.125000  1.0  1.237
  Zn  Zn21  1  0.750000  0.625000  0.000000  1.0  1.237
  Zn  Zn22  1  0.250000  0.875000  0.000000  1.0  1.237
  Zn  Zn23  1  0.250000  0.125000  0.500000  1.0  1.237
  Zn  Zn24  1  0.750000  0.375000  0.500000  1.0  1.237
  Mo  Mo25  1  0.182960  0.347130  0.088300  1.0  0.8831
  Mo  Mo26  1  0.105890  0.301510  0.008390  1.0  0.8181
  Mo  Mo27  1  0.100090  0.382480  0.985860  1.0  0.7783
  Mo  Mo28  1  0.682960  0.847130  0.588300  1.0  0.8831
  Mo  Mo29  1  0.605890  0.801510  0.508390  1.0  0.819
  Mo  Mo30  1  0.600090  0.882480  0.485860  1.0  0.7939
  Mo  Mo31  1  0.317040  0.652870  0.588300  1.0  0.8843
  Mo  Mo32  1  0.394110  0.698490  0.508390  1.0  0.8177
  Mo  Mo33  1  0.399910  0.617520  0.485860  1.0  0.7956
  Mo  Mo34  1  0.817040  0.152870  0.088300  1.0  0.8843
  Mo  Mo35  1  0.894110  0.198490  0.008390  1.0  0.8176
  Mo  Mo36  1  0.899910  0.117520  0.985860  1.0  0.7797
  Mo  Mo37  1  0.817040  0.847130  0.411700  1.0  0.8827
  Mo  Mo38  1  0.894110  0.801510  0.491610  1.0  0.819
  Mo  Mo39  1  0.899910  0.882480  0.514140  1.0  0.7941
  Mo  Mo40  1  0.317040  0.347130  0.911700  1.0  0.8827
  Mo  Mo41  1  0.394110  0.301510  0.991610  1.0  0.819
  Mo  Mo42  1  0.399910  0.382480  0.014140  1.0  0.7941
  Mo  Mo43  1  0.682960  0.152870  0.911700  1.0  0.8836
  Mo  Mo44  1  0.605890  0.198490  0.991610  1.0  0.8183
  Mo  Mo45  1  0.600090  0.117520  0.014140  1.0  0.794
  Mo  Mo46  1  0.182960  0.652870  0.411700  1.0  0.8836
  Mo  Mo47  1  0.105890  0.698490  0.491610  1.0  0.8183
  Mo  Mo48  1  0.100090  0.617520  0.514140  1.0  0.7929
  Mo  Mo49  1  0.088300  0.182960  0.347130  1.0  0.8811
  Mo  Mo50  1  0.008390  0.105890  0.301510  1.0  0.8247
  Mo  Mo51  1  0.985860  0.100090  0.382480  1.0  0.7761
  Mo  Mo52  1  0.588300  0.682960  0.847130  1.0  0.8811
  Mo  Mo53  1  0.508390  0.605890  0.801510  1.0  0.8249
  Mo  Mo54  1  0.485860  0.600090  0.882480  1.0  0.7913
  Mo  Mo55  1  0.588300  0.317040  0.652870  1.0  0.8803
  Mo  Mo56  1  0.508390  0.394110  0.698490  1.0  0.8235
  Mo  Mo57  1  0.485860  0.399910  0.617520  1.0  0.7929
  Mo  Mo58  1  0.088300  0.817040  0.152870  1.0  0.8803
  Mo  Mo59  1  0.008390  0.894110  0.198490  1.0  0.8239
  Mo  Mo60  1  0.985860  0.899910  0.117520  1.0  0.7784
  Mo  Mo61  1  0.411700  0.817040  0.847130  1.0  0.8807
  Mo  Mo62  1  0.491610  0.894110  0.801510  1.0  0.823
  Mo  Mo63  1  0.514140  0.899910  0.882480  1.0  0.7914
  Mo  Mo64  1  0.911700  0.317040  0.347130  1.0  0.8807
  Mo  Mo65  1  0.991610  0.394110  0.301510  1.0  0.823
  Mo  Mo66  1  0.014140  0.399910  0.382480  1.0  0.7914
  Mo  Mo67  1  0.911700  0.682960  0.152870  1.0  0.8807
  Mo  Mo68  1  0.991610  0.605890  0.198490  1.0  0.8233
  Mo  Mo69  1  0.014140  0.600090  0.117520  1.0  0.7955
  Mo  Mo70  1  0.411700  0.182960  0.652870  1.0  0.8807
  Mo  Mo71  1  0.491610  0.105890  0.698490  1.0  0.8233
  Mo  Mo72  1  0.514140  0.100090  0.617520  1.0  0.7956
  Mo  Mo73  1  0.347130  0.088300  0.182960  1.0  0.879
  Mo  Mo74  1  0.301510  0.008390  0.105890  1.0  0.8189
  Mo  Mo75  1  0.382480  0.985860  0.100090  1.0  0.779
  Mo  Mo76  1  0.847130  0.588300  0.682960  1.0  0.879
  Mo  Mo77  1  0.801510  0.508390  0.605890  1.0  0.8199
  Mo  Mo78  1  0.882480  0.485860  0.600090  1.0  0.7938
  Mo  Mo79  1  0.652870  0.588300  0.317040  1.0  0.8788
  Mo  Mo80  1  0.698490  0.508390  0.394110  1.0  0.821
  Mo  Mo81  1  0.617520  0.485860  0.399910  1.0  0.7899
  Mo  Mo82  1  0.152870  0.088300  0.817040  1.0  0.8788
  Mo  Mo83  1  0.198490  0.008390  0.894110  1.0  0.8207
  Mo  Mo84  1  0.117520  0.985860  0.899910  1.0  0.7745
  Mo  Mo85  1  0.847130  0.411700  0.817040  1.0  0.8815
  Mo  Mo86  1  0.801510  0.491610  0.894110  1.0  0.8203
  Mo  Mo87  1  0.882480  0.514140  0.899910  1.0  0.7906
  Mo  Mo88  1  0.347130  0.911700  0.317040  1.0  0.8815
  Mo  Mo89  1  0.301510  0.991610  0.394110  1.0  0.8203
  Mo  Mo90  1  0.382480  0.014140  0.399910  1.0  0.7906
  Mo  Mo91  1  0.152870  0.911700  0.682960  1.0  0.8785
  Mo  Mo92  1  0.198490  0.991610  0.605890  1.0  0.8212
  Mo  Mo93  1  0.117520  0.014140  0.600090  1.0  0.7925
  Mo  Mo94  1  0.652870  0.411700  0.182960  1.0  0.8785
  Mo  Mo95  1  0.698490  0.491610  0.105890  1.0  0.8212
  Mo  Mo96  1  0.617520  0.514140  0.100090  1.0  0.7927
  Mo  Mo97  1  0.097130  0.432960  0.161700  1.0  0.8798
  Mo  Mo98  1  0.051510  0.355890  0.241610  1.0  0.8236
  Mo  Mo99  1  0.132480  0.350090  0.264140  1.0  0.7956
  Mo  Mo100  1  0.597130  0.932960  0.661700  1.0  0.8798
  Mo  Mo101  1  0.551510  0.855890  0.741610  1.0  0.8236
  Mo  Mo102  1  0.632480  0.850090  0.764140  1.0  0.7956
  Mo  Mo103  1  0.402870  0.567040  0.661700  1.0  0.8788
  Mo  Mo104  1  0.448490  0.644110  0.741610  1.0  0.8215
  Mo  Mo105  1  0.367520  0.649910  0.764140  1.0  0.7935
  Mo  Mo106  1  0.902870  0.067040  0.161700  1.0  0.8788
  Mo  Mo107  1  0.948490  0.144110  0.241610  1.0  0.8215
  Mo  Mo108  1  0.867520  0.149910  0.264140  1.0  0.7935
  Mo  Mo109  1  0.597130  0.067040  0.838300  1.0  0.8799
  Mo  Mo110  1  0.551510  0.144110  0.758390  1.0  0.8219
  Mo  Mo111  1  0.632480  0.149910  0.735860  1.0  0.7954
  Mo  Mo112  1  0.097130  0.567040  0.338300  1.0  0.8799
  Mo  Mo113  1  0.051510  0.644110  0.258390  1.0  0.8219
  Mo  Mo114  1  0.132480  0.649910  0.235860  1.0  0.7954
  Mo  Mo115  1  0.902870  0.932960  0.338300  1.0  0.8789
  Mo  Mo116  1  0.948490  0.855890  0.258390  1.0  0.8218
  Mo  Mo117  1  0.867520  0.850090  0.235860  1.0  0.796
  Mo  Mo118  1  0.402870  0.432960  0.838300  1.0  0.8789
  Mo  Mo119  1  0.448490  0.355890  0.758390  1.0  0.8218
  Mo  Mo120  1  0.367520  0.350090  0.735860  1.0  0.796
  Mo  Mo121  1  0.932960  0.338300  0.902870  1.0  0.8802
  Mo  Mo122  1  0.855890  0.258390  0.948490  1.0  0.8208
  Mo  Mo123  1  0.850090  0.235860  0.867520  1.0  0.7905
  Mo  Mo124  1  0.432960  0.838300  0.402870  1.0  0.8802
  Mo  Mo125  1  0.355890  0.758390  0.448490  1.0  0.8208
  Mo  Mo126  1  0.350090  0.735860  0.367520  1.0  0.7905
  Mo  Mo127  1  0.067040  0.838300  0.597130  1.0  0.88
  Mo  Mo128  1  0.144110  0.758390  0.551510  1.0  0.8204
  Mo  Mo129  1  0.149910  0.735860  0.632480  1.0  0.7901
  Mo  Mo130  1  0.567040  0.338300  0.097130  1.0  0.88
  Mo  Mo131  1  0.644110  0.258390  0.051510  1.0  0.8204
  Mo  Mo132  1  0.649910  0.235860  0.132480  1.0  0.7901
  Mo  Mo133  1  0.567040  0.661700  0.402870  1.0  0.8811
  Mo  Mo134  1  0.644110  0.741610  0.448490  1.0  0.8204
  Mo  Mo135  1  0.649910  0.764140  0.367520  1.0  0.7927
  Mo  Mo136  1  0.067040  0.161700  0.902870  1.0  0.8811
  Mo  Mo137  1  0.144110  0.241610  0.948490  1.0  0.8204
  Mo  Mo138  1  0.149910  0.264140  0.867520  1.0  0.7927
  Mo  Mo139  1  0.432960  0.161700  0.097130  1.0  0.8811
  Mo  Mo140  1  0.355890  0.241610  0.051510  1.0  0.8218
  Mo  Mo141  1  0.350090  0.264140  0.132480  1.0  0.7874
  Mo  Mo142  1  0.932960  0.661700  0.597130  1.0  0.8811
  Mo  Mo143  1  0.855890  0.741610  0.551510  1.0  0.8218
  Mo  Mo144  1  0.850090  0.764140  0.632480  1.0  0.7874
  Mo  Mo145  1  0.838300  0.597130  0.067040  1.0  0.8825
  Mo  Mo146  1  0.758390  0.551510  0.144110  1.0  0.8199
  Mo  Mo147  1  0.735860  0.632480  0.149910  1.0  0.7932
  Mo  Mo148  1  0.338300  0.097130  0.567040  1.0  0.8825
  Mo  Mo149  1  0.258390  0.051510  0.644110  1.0  0.8199
  Mo  Mo150  1  0.235860  0.132480  0.649910  1.0  0.7932
  Mo  Mo151  1  0.338300  0.902870  0.932960  1.0  0.8828
  Mo  Mo152  1  0.258390  0.948490  0.855890  1.0  0.8203
  Mo  Mo153  1  0.235860  0.867520  0.850090  1.0  0.7966
  Mo  Mo154  1  0.838300  0.402870  0.432960  1.0  0.8828
  Mo  Mo155  1  0.758390  0.448490  0.355890  1.0  0.8203
  Mo  Mo156  1  0.735860  0.367520  0.350090  1.0  0.7966
  Mo  Mo157  1  0.161700  0.097130  0.432960  1.0  0.8824
  Mo  Mo158  1  0.241610  0.051510  0.355890  1.0  0.8195
  Mo  Mo159  1  0.264140  0.132480  0.350090  1.0  0.7936
  Mo  Mo160  1  0.661700  0.597130  0.932960  1.0  0.8824
  Mo  Mo161  1  0.741610  0.551510  0.855890  1.0  0.8195
  Mo  Mo162  1  0.764140  0.632480  0.850090  1.0  0.7936
  Mo  Mo163  1  0.661700  0.402870  0.567040  1.0  0.8845
  Mo  Mo164  1  0.741610  0.448490  0.644110  1.0  0.8185
  Mo  Mo165  1  0.764140  0.367520  0.649910  1.0  0.7915
  Mo  Mo166  1  0.161700  0.902870  0.067040  1.0  0.8845
  Mo  Mo167  1  0.241610  0.948490  0.144110  1.0  0.8185
  Mo  Mo168  1  0.264140  0.867520  0.149910  1.0  0.7915
  Mo  Mo169  1  0.817040  0.652870  0.911700  1.0  0.8841
  Mo  Mo170  1  0.894110  0.698490  0.991610  1.0  0.8172
  Mo  Mo171  1  0.899910  0.617520  0.014140  1.0  0.7789
  Mo  Mo172  1  0.317040  0.152870  0.411700  1.0  0.8841
  Mo  Mo173  1  0.394110  0.198490  0.491610  1.0  0.8178
  Mo  Mo174  1  0.399910  0.117520  0.514140  1.0  0.7946
  Mo  Mo175  1  0.682960  0.347130  0.411700  1.0  0.8823
  Mo  Mo176  1  0.605890  0.301510  0.491610  1.0  0.8192
  Mo  Mo177  1  0.600090  0.382480  0.514140  1.0  0.7921
  Mo  Mo178  1  0.182960  0.847130  0.911700  1.0  0.8823
  Mo  Mo179  1  0.105890  0.801510  0.991610  1.0  0.8177
  Mo  Mo180  1  0.100090  0.882480  0.014140  1.0  0.7763
  Mo  Mo181  1  0.182960  0.152870  0.588300  1.0  0.8839
  Mo  Mo182  1  0.105890  0.198490  0.508390  1.0  0.8184
  Mo  Mo183  1  0.100090  0.117520  0.485860  1.0  0.7947
  Mo  Mo184  1  0.682960  0.652870  0.088300  1.0  0.8839
  Mo  Mo185  1  0.605890  0.698490  0.008390  1.0  0.8184
  Mo  Mo186  1  0.600090  0.617520  0.985860  1.0  0.7947
  Mo  Mo187  1  0.317040  0.847130  0.088300  1.0  0.8834
  Mo  Mo188  1  0.394110  0.801510  0.008390  1.0  0.8183
  Mo  Mo189  1  0.399910  0.882480  0.985860  1.0  0.7962
  Mo  Mo190  1  0.817040  0.347130  0.588300  1.0  0.8834
  Mo  Mo191  1  0.894110  0.301510  0.508390  1.0  0.8183
  Mo  Mo192  1  0.899910  0.382480  0.485860  1.0  0.7949
  Mo  Mo193  1  0.911700  0.817040  0.652870  1.0  0.8809
  Mo  Mo194  1  0.991610  0.894110  0.698490  1.0  0.8227
  Mo  Mo195  1  0.014140  0.899910  0.617520  1.0  0.7786
  Mo  Mo196  1  0.411700  0.317040  0.152870  1.0  0.8809
  Mo  Mo197  1  0.491610  0.394110  0.198490  1.0  0.8227
  Mo  Mo198  1  0.514140  0.399910  0.117520  1.0  0.7936
  Mo  Mo199  1  0.411700  0.682960  0.347130  1.0  0.8814
  Mo  Mo200  1  0.491610  0.605890  0.301510  1.0  0.8241
  Mo  Mo201  1  0.514140  0.600090  0.382480  1.0  0.7904
  Mo  Mo202  1  0.911700  0.182960  0.847130  1.0  0.8814
  Mo  Mo203  1  0.991610  0.105890  0.801510  1.0  0.8237
  Mo  Mo204  1  0.014140  0.100090  0.882480  1.0  0.7746
  Mo  Mo205  1  0.588300  0.182960  0.152870  1.0  0.8804
  Mo  Mo206  1  0.508390  0.105890  0.198490  1.0  0.8244
  Mo  Mo207  1  0.485860  0.100090  0.117520  1.0  0.7952
  Mo  Mo208  1  0.088300  0.682960  0.652870  1.0  0.8804
  Mo  Mo209  1  0.008390  0.605890  0.698490  1.0  0.8244
  Mo  Mo210  1  0.985860  0.600090  0.617520  1.0  0.7952
  Mo  Mo211  1  0.088300  0.317040  0.847130  1.0  0.8798
  Mo  Mo212  1  0.008390  0.394110  0.801510  1.0  0.8243
  Mo  Mo213  1  0.985860  0.399910  0.882480  1.0  0.7928
  Mo  Mo214  1  0.588300  0.817040  0.347130  1.0  0.8798
  Mo  Mo215  1  0.508390  0.894110  0.301510  1.0  0.8243
  Mo  Mo216  1  0.485860  0.899910  0.382480  1.0  0.7918
  Mo  Mo217  1  0.652870  0.911700  0.817040  1.0  0.8788
  Mo  Mo218  1  0.698490  0.991610  0.894110  1.0  0.8198
  Mo  Mo219  1  0.617520  0.014140  0.899910  1.0  0.7737
  Mo  Mo220  1  0.152870  0.411700  0.317040  1.0  0.8788
  Mo  Mo221  1  0.198490  0.491610  0.394110  1.0  0.8201
  Mo  Mo222  1  0.117520  0.514140  0.399910  1.0  0.7892
  Mo  Mo223  1  0.347130  0.411700  0.682960  1.0  0.8793
  Mo  Mo224  1  0.301510  0.491610  0.605890  1.0  0.8215
  Mo  Mo225  1  0.382480  0.514140  0.600090  1.0  0.7938
  Mo  Mo226  1  0.847130  0.911700  0.182960  1.0  0.8793
  Mo  Mo227  1  0.801510  0.991610  0.105890  1.0  0.8199
  Mo  Mo228  1  0.882480  0.014140  0.100090  1.0  0.7785
  Mo  Mo229  1  0.152870  0.588300  0.182960  1.0  0.8784
  Mo  Mo230  1  0.198490  0.508390  0.105890  1.0  0.8203
  Mo  Mo231  1  0.117520  0.485860  0.100090  1.0  0.7925
  Mo  Mo232  1  0.652870  0.088300  0.682960  1.0  0.8784
  Mo  Mo233  1  0.698490  0.008390  0.605890  1.0  0.8203
  Mo  Mo234  1  0.617520  0.985860  0.600090  1.0  0.7925
  Mo  Mo235  1  0.847130  0.088300  0.317040  1.0  0.8808
  Mo  Mo236  1  0.801510  0.008390  0.394110  1.0  0.8204
  Mo  Mo237  1  0.882480  0.985860  0.399910  1.0  0.7914
  Mo  Mo238  1  0.347130  0.588300  0.817040  1.0  0.8808
  Mo  Mo239  1  0.301510  0.508390  0.894110  1.0  0.8204
  Mo  Mo240  1  0.382480  0.485860  0.899910  1.0  0.7913
  Mo  Mo241  1  0.902870  0.567040  0.838300  1.0  0.8789
  Mo  Mo242  1  0.948490  0.644110  0.758390  1.0  0.8235
  Mo  Mo243  1  0.867520  0.649910  0.735860  1.0  0.7951
  Mo  Mo244  1  0.402870  0.067040  0.338300  1.0  0.8789
  Mo  Mo245  1  0.448490  0.144110  0.258390  1.0  0.8235
  Mo  Mo246  1  0.367520  0.149910  0.235860  1.0  0.7951
  Mo  Mo247  1  0.597130  0.432960  0.338300  1.0  0.8807
  Mo  Mo248  1  0.551510  0.355890  0.258390  1.0  0.8217
  Mo  Mo249  1  0.632480  0.350090  0.235860  1.0  0.7965
  Mo  Mo250  1  0.097130  0.932960  0.838300  1.0  0.8807
  Mo  Mo251  1  0.051510  0.855890  0.758390  1.0  0.8217
  Mo  Mo252  1  0.132480  0.850090  0.735860  1.0  0.7965
  Mo  Mo253  1  0.402870  0.932960  0.161700  1.0  0.8785
  Mo  Mo254  1  0.448490  0.855890  0.241610  1.0  0.8226
  Mo  Mo255  1  0.367520  0.850090  0.264140  1.0  0.7944
  Mo  Mo256  1  0.902870  0.432960  0.661700  1.0  0.8785
  Mo  Mo257  1  0.948490  0.355890  0.741610  1.0  0.8226
  Mo  Mo258  1  0.867520  0.350090  0.764140  1.0  0.7944
  Mo  Mo259  1  0.097130  0.067040  0.661700  1.0  0.8792
  Mo  Mo260  1  0.051510  0.144110  0.741610  1.0  0.8208
  Mo  Mo261  1  0.132480  0.149910  0.764140  1.0  0.7947
  Mo  Mo262  1  0.597130  0.567040  0.161700  1.0  0.8792
  Mo  Mo263  1  0.551510  0.644110  0.241610  1.0  0.8208
  Mo  Mo264  1  0.632480  0.649910  0.264140  1.0  0.7947
  Mo  Mo265  1  0.067040  0.661700  0.097130  1.0  0.8808
  Mo  Mo266  1  0.144110  0.741610  0.051510  1.0  0.8209
  Mo  Mo267  1  0.149910  0.764140  0.132480  1.0  0.7889
  Mo  Mo268  1  0.567040  0.161700  0.597130  1.0  0.8808
  Mo  Mo269  1  0.644110  0.241610  0.551510  1.0  0.8209
  Mo  Mo270  1  0.649910  0.264140  0.632480  1.0  0.7889
  Mo  Mo271  1  0.932960  0.161700  0.402870  1.0  0.8802
  Mo  Mo272  1  0.855890  0.241610  0.448490  1.0  0.8217
  Mo  Mo273  1  0.850090  0.264140  0.367520  1.0  0.7909
  Mo  Mo274  1  0.432960  0.661700  0.902870  1.0  0.8802
  Mo  Mo275  1  0.355890  0.741610  0.948490  1.0  0.8217
  Mo  Mo276  1  0.350090  0.764140  0.867520  1.0  0.7909
  Mo  Mo277  1  0.432960  0.338300  0.597130  1.0  0.8803
  Mo  Mo278  1  0.355890  0.258390  0.551510  1.0  0.8208
  Mo  Mo279  1  0.350090  0.235860  0.632480  1.0  0.7879
  Mo  Mo280  1  0.932960  0.838300  0.097130  1.0  0.8803
  Mo  Mo281  1  0.855890  0.758390  0.051510  1.0  0.8208
  Mo  Mo282  1  0.850090  0.735860  0.132480  1.0  0.7879
  Mo  Mo283  1  0.567040  0.838300  0.902870  1.0  0.8811
  Mo  Mo284  1  0.644110  0.758390  0.948490  1.0  0.8202
  Mo  Mo285  1  0.649910  0.735860  0.867520  1.0  0.793
  Mo  Mo286  1  0.067040  0.338300  0.402870  1.0  0.8811
  Mo  Mo287  1  0.144110  0.258390  0.448490  1.0  0.8202
  Mo  Mo288  1  0.149910  0.235860  0.367520  1.0  0.793
  Mo  Mo289  1  0.161700  0.402870  0.932960  1.0  0.8831
  Mo  Mo290  1  0.241610  0.448490  0.855890  1.0  0.8191
  Mo  Mo291  1  0.264140  0.367520  0.850090  1.0  0.7968
  Mo  Mo292  1  0.661700  0.902870  0.432960  1.0  0.8831
  Mo  Mo293  1  0.741610  0.948490  0.355890  1.0  0.8191
  Mo  Mo294  1  0.764140  0.867520  0.350090  1.0  0.7968
  Mo  Mo295  1  0.661700  0.097130  0.067040  1.0  0.8829
  Mo  Mo296  1  0.741610  0.051510  0.144110  1.0  0.8199
  Mo  Mo297  1  0.764140  0.132480  0.149910  1.0  0.7917
  Mo  Mo298  1  0.161700  0.597130  0.567040  1.0  0.8829
  Mo  Mo299  1  0.241610  0.551510  0.644110  1.0  0.8199
  Mo  Mo300  1  0.264140  0.632480  0.649910  1.0  0.7917
  Mo  Mo301  1  0.838300  0.902870  0.567040  1.0  0.8838
  Mo  Mo302  1  0.758390  0.948490  0.644110  1.0  0.8182
  Mo  Mo303  1  0.735860  0.867520  0.649910  1.0  0.7925
  Mo  Mo304  1  0.338300  0.402870  0.067040  1.0  0.8838
  Mo  Mo305  1  0.258390  0.448490  0.144110  1.0  0.8182
  Mo  Mo306  1  0.235860  0.367520  0.149910  1.0  0.7925
  Mo  Mo307  1  0.338300  0.597130  0.432960  1.0  0.8823
  Mo  Mo308  1  0.258390  0.551510  0.355890  1.0  0.8212
  Mo  Mo309  1  0.235860  0.632480  0.350090  1.0  0.7923
  Mo  Mo310  1  0.838300  0.097130  0.932960  1.0  0.8823
  Mo  Mo311  1  0.758390  0.051510  0.855890  1.0  0.8212
  Mo  Mo312  1  0.735860  0.132480  0.850090  1.0  0.7923
  P  P313  1  0.176790  0.349310  0.006470  1.0  1.8829
  P  P314  1  0.676790  0.849310  0.506470  1.0  1.8829
  P  P315  1  0.323210  0.650690  0.506470  1.0  1.8834
  P  P316  1  0.823210  0.150690  0.006470  1.0  1.8834
  P  P317  1  0.823210  0.849310  0.493530  1.0  1.8831
  P  P318  1  0.323210  0.349310  0.993530  1.0  1.8831
  P  P319  1  0.676790  0.150690  0.993530  1.0  1.883
  P  P320  1  0.176790  0.650690  0.493530  1.0  1.883
  P  P321  1  0.006470  0.176790  0.349310  1.0  1.8819
  P  P322  1  0.506470  0.676790  0.849310  1.0  1.8819
  P  P323  1  0.506470  0.323210  0.650690  1.0  1.8821
  P  P324  1  0.006470  0.823210  0.150690  1.0  1.8821
  P  P325  1  0.493530  0.823210  0.849310  1.0  1.8817
  P  P326  1  0.993530  0.323210  0.349310  1.0  1.8817
  P  P327  1  0.993530  0.676790  0.150690  1.0  1.8815
  P  P328  1  0.493530  0.176790  0.650690  1.0  1.8815
  P  P329  1  0.349310  0.006470  0.176790  1.0  1.8817
  P  P330  1  0.849310  0.506470  0.676790  1.0  1.8817
  P  P331  1  0.650690  0.506470  0.323210  1.0  1.8827
  P  P332  1  0.150690  0.006470  0.823210  1.0  1.8827
  P  P333  1  0.849310  0.493530  0.823210  1.0  1.8825
  P  P334  1  0.349310  0.993530  0.323210  1.0  1.8825
  P  P335  1  0.150690  0.993530  0.676790  1.0  1.8814
  P  P336  1  0.650690  0.493530  0.176790  1.0  1.8814
  P  P337  1  0.099310  0.426790  0.243530  1.0  1.8815
  P  P338  1  0.599310  0.926790  0.743530  1.0  1.8815
  P  P339  1  0.400690  0.573210  0.743530  1.0  1.8818
  P  P340  1  0.900690  0.073210  0.243530  1.0  1.8818
  P  P341  1  0.599310  0.073210  0.756470  1.0  1.8818
  P  P342  1  0.099310  0.573210  0.256470  1.0  1.8818
  P  P343  1  0.900690  0.926790  0.256470  1.0  1.8816
  P  P344  1  0.400690  0.426790  0.756470  1.0  1.8816
  P  P345  1  0.926790  0.256470  0.900690  1.0  1.883
  P  P346  1  0.426790  0.756470  0.400690  1.0  1.883
  P  P347  1  0.073210  0.756470  0.599310  1.0  1.8834
  P  P348  1  0.573210  0.256470  0.099310  1.0  1.8834
  P  P349  1  0.573210  0.743530  0.400690  1.0  1.8833
  P  P350  1  0.073210  0.243530  0.900690  1.0  1.8833
  P  P351  1  0.426790  0.243530  0.099310  1.0  1.8829
  P  P352  1  0.926790  0.743530  0.599310  1.0  1.8829
  P  P353  1  0.756470  0.599310  0.073210  1.0  1.883
  P  P354  1  0.256470  0.099310  0.573210  1.0  1.883
  P  P355  1  0.256470  0.900690  0.926790  1.0  1.8816
  P  P356  1  0.756470  0.400690  0.426790  1.0  1.8816
  P  P357  1  0.243530  0.099310  0.426790  1.0  1.8813
  P  P358  1  0.743530  0.599310  0.926790  1.0  1.8813
  P  P359  1  0.743530  0.400690  0.573210  1.0  1.8827
  P  P360  1  0.243530  0.900690  0.073210  1.0  1.8827
  P  P361  1  0.823210  0.650690  0.993530  1.0  1.8834
  P  P362  1  0.323210  0.150690  0.493530  1.0  1.8834
  P  P363  1  0.676790  0.349310  0.493530  1.0  1.8828
  P  P364  1  0.176790  0.849310  0.993530  1.0  1.8828
  P  P365  1  0.176790  0.150690  0.506470  1.0  1.883
  P  P366  1  0.676790  0.650690  0.006470  1.0  1.883
  P  P367  1  0.323210  0.849310  0.006470  1.0  1.8833
  P  P368  1  0.823210  0.349310  0.506470  1.0  1.8833
  P  P369  1  0.993530  0.823210  0.650690  1.0  1.8816
  P  P370  1  0.493530  0.323210  0.150690  1.0  1.8816
  P  P371  1  0.493530  0.676790  0.349310  1.0  1.8817
  P  P372  1  0.993530  0.176790  0.849310  1.0  1.8817
  P  P373  1  0.506470  0.176790  0.150690  1.0  1.8818
  P  P374  1  0.006470  0.676790  0.650690  1.0  1.8818
  P  P375  1  0.006470  0.323210  0.849310  1.0  1.8821
  P  P376  1  0.506470  0.823210  0.349310  1.0  1.8821
  P  P377  1  0.650690  0.993530  0.823210  1.0  1.8827
  P  P378  1  0.150690  0.493530  0.323210  1.0  1.8827
  P  P379  1  0.349310  0.493530  0.676790  1.0  1.8813
  P  P380  1  0.849310  0.993530  0.176790  1.0  1.8813
  P  P381  1  0.150690  0.506470  0.176790  1.0  1.8814
  P  P382  1  0.650690  0.006470  0.676790  1.0  1.8814
  P  P383  1  0.849310  0.006470  0.323210  1.0  1.8829
  P  P384  1  0.349310  0.506470  0.823210  1.0  1.8829
  P  P385  1  0.900690  0.573210  0.756470  1.0  1.8818
  P  P386  1  0.400690  0.073210  0.256470  1.0  1.8818
  P  P387  1  0.599310  0.426790  0.256470  1.0  1.8816
  P  P388  1  0.099310  0.926790  0.756470  1.0  1.8816
  P  P389  1  0.400690  0.926790  0.243530  1.0  1.8815
  P  P390  1  0.900690  0.426790  0.743530  1.0  1.8815
  P  P391  1  0.099310  0.073210  0.743530  1.0  1.8817
  P  P392  1  0.599310  0.573210  0.243530  1.0  1.8817
  P  P393  1  0.073210  0.743530  0.099310  1.0  1.8832
  P  P394  1  0.573210  0.243530  0.599310  1.0  1.8832
  P  P395  1  0.926790  0.243530  0.400690  1.0  1.8829
  P  P396  1  0.426790  0.743530  0.900690  1.0  1.8829
  P  P397  1  0.426790  0.256470  0.599310  1.0  1.883
  P  P398  1  0.926790  0.756470  0.099310  1.0  1.883
  P  P399  1  0.573210  0.756470  0.900690  1.0  1.8834
  P  P400  1  0.073210  0.256470  0.400690  1.0  1.8834
  P  P401  1  0.243530  0.400690  0.926790  1.0  1.8815
  P  P402  1  0.743530  0.900690  0.426790  1.0  1.8815
  P  P403  1  0.743530  0.099310  0.073210  1.0  1.8825
  P  P404  1  0.243530  0.599310  0.573210  1.0  1.8825
  P  P405  1  0.756470  0.900690  0.573210  1.0  1.8829
  P  P406  1  0.256470  0.400690  0.073210  1.0  1.8829
  P  P407  1  0.256470  0.599310  0.426790  1.0  1.8817
  P  P408  1  0.756470  0.099310  0.926790  1.0  1.8817
  P  P409  1  0.173020  0.423020  0.125000  1.0  1.8724
  P  P410  1  0.673020  0.923020  0.625000  1.0  1.8724
  P  P411  1  0.326980  0.576980  0.625000  1.0  1.8718
  P  P412  1  0.826980  0.076980  0.125000  1.0  1.8718
  P  P413  1  0.826980  0.923020  0.375000  1.0  1.8723
  P  P414  1  0.326980  0.423020  0.875000  1.0  1.8723
  P  P415  1  0.673020  0.076980  0.875000  1.0  1.872
  P  P416  1  0.173020  0.576980  0.375000  1.0  1.872
  P  P417  1  0.125000  0.173020  0.423020  1.0  1.874
  P  P418  1  0.625000  0.673020  0.923020  1.0  1.874
  P  P419  1  0.625000  0.326980  0.576980  1.0  1.8732
  P  P420  1  0.125000  0.826980  0.076980  1.0  1.8732
  P  P421  1  0.375000  0.826980  0.923020  1.0  1.8736
  P  P422  1  0.875000  0.326980  0.423020  1.0  1.8736
  P  P423  1  0.875000  0.673020  0.076980  1.0  1.8738
  P  P424  1  0.375000  0.173020  0.576980  1.0  1.8738
  P  P425  1  0.423020  0.125000  0.173020  1.0  1.872
  P  P426  1  0.923020  0.625000  0.673020  1.0  1.872
  P  P427  1  0.576980  0.625000  0.326980  1.0  1.8717
  P  P428  1  0.076980  0.125000  0.826980  1.0  1.8717
  P  P429  1  0.923020  0.375000  0.826980  1.0  1.8718
  P  P430  1  0.423020  0.875000  0.326980  1.0  1.8718
  P  P431  1  0.076980  0.875000  0.673020  1.0  1.872
  P  P432  1  0.576980  0.375000  0.173020  1.0  1.872
  P  P433  1  0.826980  0.576980  0.875000  1.0  1.8718
  P  P434  1  0.326980  0.076980  0.375000  1.0  1.8718
  P  P435  1  0.673020  0.423020  0.375000  1.0  1.8724
  P  P436  1  0.173020  0.923020  0.875000  1.0  1.8724
  P  P437  1  0.173020  0.076980  0.625000  1.0  1.872
  P  P438  1  0.673020  0.576980  0.125000  1.0  1.872
  P  P439  1  0.326980  0.923020  0.125000  1.0  1.8723
  P  P440  1  0.826980  0.423020  0.625000  1.0  1.8723
  P  P441  1  0.875000  0.826980  0.576980  1.0  1.8732
  P  P442  1  0.375000  0.326980  0.076980  1.0  1.8732
  P  P443  1  0.375000  0.673020  0.423020  1.0  1.874
  P  P444  1  0.875000  0.173020  0.923020  1.0  1.874
  P  P445  1  0.625000  0.173020  0.076980  1.0  1.8738
  P  P446  1  0.125000  0.673020  0.576980  1.0  1.8738
  P  P447  1  0.125000  0.326980  0.923020  1.0  1.8736
  P  P448  1  0.625000  0.826980  0.423020  1.0  1.8736
  P  P449  1  0.576980  0.875000  0.826980  1.0  1.8717
  P  P450  1  0.076980  0.375000  0.326980  1.0  1.8717
  P  P451  1  0.423020  0.375000  0.673020  1.0  1.872
  P  P452  1  0.923020  0.875000  0.173020  1.0  1.872
  P  P453  1  0.076980  0.625000  0.173020  1.0  1.872
  P  P454  1  0.576980  0.125000  0.673020  1.0  1.872
  P  P455  1  0.923020  0.125000  0.326980  1.0  1.8718
  P  P456  1  0.423020  0.625000  0.826980  1.0  1.8718
  O  O457  1  0.212560  0.344130  0.993580  1.0  -0.6395
  O  O458  1  0.178240  0.366030  0.041960  1.0  -0.6726
  O  O459  1  0.166840  0.397770  0.096400  1.0  -0.6623
  O  O460  1  0.168710  0.458590  0.109910  1.0  -0.7746
  O  O461  1  0.159050  0.315360  0.008080  1.0  -0.6589
  O  O462  1  0.102280  0.348930  0.020110  1.0  -0.5748
  O  O463  1  0.157510  0.375000  0.984520  1.0  -0.7716
  O  O464  1  0.193710  0.349510  0.135080  1.0  -0.5401
  O  O465  1  0.712560  0.844130  0.493580  1.0  -0.6395
  O  O466  1  0.678240  0.866030  0.541960  1.0  -0.6726
  O  O467  1  0.666840  0.897770  0.596400  1.0  -0.6623
  O  O468  1  0.668710  0.958590  0.609910  1.0  -0.7746
  O  O469  1  0.659050  0.815360  0.508080  1.0  -0.6589
  O  O470  1  0.602280  0.848930  0.520110  1.0  -0.5748
  O  O471  1  0.657510  0.875000  0.484520  1.0  -0.7716
  O  O472  1  0.693710  0.849510  0.635080  1.0  -0.5401
  O  O473  1  0.287440  0.655870  0.493580  1.0  -0.6394
  O  O474  1  0.321760  0.633970  0.541960  1.0  -0.6713
  O  O475  1  0.333160  0.602230  0.596400  1.0  -0.6612
  O  O476  1  0.331290  0.541410  0.609910  1.0  -0.7739
  O  O477  1  0.340950  0.684640  0.508080  1.0  -0.6587
  O  O478  1  0.397720  0.651070  0.520110  1.0  -0.5777
  O  O479  1  0.342490  0.625000  0.484520  1.0  -0.7701
  O  O480  1  0.306290  0.650490  0.635080  1.0  -0.5393
  O  O481  1  0.787440  0.155870  0.993580  1.0  -0.6394
  O  O482  1  0.821760  0.133970  0.041960  1.0  -0.6713
  O  O483  1  0.833160  0.102230  0.096400  1.0  -0.6612
  O  O484  1  0.831290  0.041410  0.109910  1.0  -0.7739
  O  O485  1  0.840950  0.184640  0.008080  1.0  -0.6587
  O  O486  1  0.897720  0.151070  0.020110  1.0  -0.5777
  O  O487  1  0.842490  0.125000  0.984520  1.0  -0.7701
  O  O488  1  0.806290  0.150490  0.135080  1.0  -0.5393
  O  O489  1  0.787440  0.844130  0.506420  1.0  -0.6396
  O  O490  1  0.821760  0.866030  0.458040  1.0  -0.6713
  O  O491  1  0.833160  0.897770  0.403600  1.0  -0.6635
  O  O492  1  0.831290  0.958590  0.390090  1.0  -0.7753
  O  O493  1  0.840950  0.815360  0.491920  1.0  -0.6579
  O  O494  1  0.897720  0.848930  0.479890  1.0  -0.5796
  O  O495  1  0.842490  0.875000  0.515480  1.0  -0.7707
  O  O496  1  0.806290  0.849510  0.364920  1.0  -0.5395
  O  O497  1  0.287440  0.344130  0.006420  1.0  -0.6396
  O  O498  1  0.321760  0.366030  0.958040  1.0  -0.6713
  O  O499  1  0.333160  0.397770  0.903600  1.0  -0.6635
  O  O500  1  0.331290  0.458590  0.890090  1.0  -0.7753
  O  O501  1  0.340950  0.315360  0.991920  1.0  -0.6579
  O  O502  1  0.397720  0.348930  0.979890  1.0  -0.5796
  O  O503  1  0.342490  0.375000  0.015480  1.0  -0.7707
  O  O504  1  0.306290  0.349510  0.864920  1.0  -0.5395
  O  O505  1  0.712560  0.155870  0.006420  1.0  -0.639
  O  O506  1  0.678240  0.133970  0.958040  1.0  -0.6729
  O  O507  1  0.666840  0.102230  0.903600  1.0  -0.6652
  O  O508  1  0.668710  0.041410  0.890090  1.0  -0.7765
  O  O509  1  0.659050  0.184640  0.991920  1.0  -0.6595
  O  O510  1  0.602280  0.151070  0.979890  1.0  -0.579
  O  O511  1  0.657510  0.125000  0.015480  1.0  -0.771
  O  O512  1  0.693710  0.150490  0.864920  1.0  -0.5413
  O  O513  1  0.212560  0.655870  0.506420  1.0  -0.639
  O  O514  1  0.178240  0.633970  0.458040  1.0  -0.6729
  O  O515  1  0.166840  0.602230  0.403600  1.0  -0.6652
  O  O516  1  0.168710  0.541410  0.390090  1.0  -0.7765
  O  O517  1  0.159050  0.684640  0.491920  1.0  -0.6595
  O  O518  1  0.102280  0.651070  0.479890  1.0  -0.579
  O  O519  1  0.157510  0.625000  0.515480  1.0  -0.771
  O  O520  1  0.193710  0.650490  0.364920  1.0  -0.5413
  O  O521  1  0.993580  0.212560  0.344130  1.0  -0.6397
  O  O522  1  0.041960  0.178240  0.366030  1.0  -0.6688
  O  O523  1  0.096400  0.166840  0.397770  1.0  -0.6613
  O  O524  1  0.109910  0.168710  0.458590  1.0  -0.7731
  O  O525  1  0.008080  0.159050  0.315360  1.0  -0.6545
  O  O526  1  0.020110  0.102280  0.348930  1.0  -0.5766
  O  O527  1  0.984520  0.157510  0.375000  1.0  -0.7725
  O  O528  1  0.135080  0.193710  0.349510  1.0  -0.5368
  O  O529  1  0.493580  0.712560  0.844130  1.0  -0.6397
  O  O530  1  0.541960  0.678240  0.866030  1.0  -0.6688
  O  O531  1  0.596400  0.666840  0.897770  1.0  -0.6613
  O  O532  1  0.609910  0.668710  0.958590  1.0  -0.7731
  O  O533  1  0.508080  0.659050  0.815360  1.0  -0.6545
  O  O534  1  0.520110  0.602280  0.848930  1.0  -0.5766
  O  O535  1  0.484520  0.657510  0.875000  1.0  -0.7725
  O  O536  1  0.635080  0.693710  0.849510  1.0  -0.5368
  O  O537  1  0.493580  0.287440  0.655870  1.0  -0.6396
  O  O538  1  0.541960  0.321760  0.633970  1.0  -0.671
  O  O539  1  0.596400  0.333160  0.602230  1.0  -0.6638
  O  O540  1  0.609910  0.331290  0.541410  1.0  -0.7723
  O  O541  1  0.508080  0.340950  0.684640  1.0  -0.656
  O  O542  1  0.520110  0.397720  0.651070  1.0  -0.5793
  O  O543  1  0.484520  0.342490  0.625000  1.0  -0.7716
  O  O544  1  0.635080  0.306290  0.650490  1.0  -0.5391
  O  O545  1  0.993580  0.787440  0.155870  1.0  -0.6396
  O  O546  1  0.041960  0.821760  0.133970  1.0  -0.671
  O  O547  1  0.096400  0.833160  0.102230  1.0  -0.6638
  O  O548  1  0.109910  0.831290  0.041410  1.0  -0.7723
  O  O549  1  0.008080  0.840950  0.184640  1.0  -0.656
  O  O550  1  0.020110  0.897720  0.151070  1.0  -0.5793
  O  O551  1  0.984520  0.842490  0.125000  1.0  -0.7716
  O  O552  1  0.135080  0.806290  0.150490  1.0  -0.5391
  O  O553  1  0.506420  0.787440  0.844130  1.0  -0.6397
  O  O554  1  0.458040  0.821760  0.866030  1.0  -0.6694
  O  O555  1  0.403600  0.833160  0.897770  1.0  -0.663
  O  O556  1  0.390090  0.831290  0.958590  1.0  -0.7723
  O  O557  1  0.491920  0.840950  0.815360  1.0  -0.6547
  O  O558  1  0.479890  0.897720  0.848930  1.0  -0.5805
  O  O559  1  0.515480  0.842490  0.875000  1.0  -0.7731
  O  O560  1  0.364920  0.806290  0.849510  1.0  -0.5379
  O  O561  1  0.006420  0.287440  0.344130  1.0  -0.6397
  O  O562  1  0.958040  0.321760  0.366030  1.0  -0.6694
  O  O563  1  0.903600  0.333160  0.397770  1.0  -0.663
  O  O564  1  0.890090  0.331290  0.458590  1.0  -0.7723
  O  O565  1  0.991920  0.340950  0.315360  1.0  -0.6547
  O  O566  1  0.979890  0.397720  0.348930  1.0  -0.5805
  O  O567  1  0.015480  0.342490  0.375000  1.0  -0.7731
  O  O568  1  0.864920  0.306290  0.349510  1.0  -0.5379
  O  O569  1  0.006420  0.712560  0.155870  1.0  -0.6389
  O  O570  1  0.958040  0.678240  0.133970  1.0  -0.6704
  O  O571  1  0.903600  0.666840  0.102230  1.0  -0.6632
  O  O572  1  0.890090  0.668710  0.041410  1.0  -0.7712
  O  O573  1  0.991920  0.659050  0.184640  1.0  -0.6569
  O  O574  1  0.979890  0.602280  0.151070  1.0  -0.5784
  O  O575  1  0.015480  0.657510  0.125000  1.0  -0.7709
  O  O576  1  0.864920  0.693710  0.150490  1.0  -0.5394
  O  O577  1  0.506420  0.212560  0.655870  1.0  -0.6389
  O  O578  1  0.458040  0.178240  0.633970  1.0  -0.6704
  O  O579  1  0.403600  0.166840  0.602230  1.0  -0.6632
  O  O580  1  0.390090  0.168710  0.541410  1.0  -0.7712
  O  O581  1  0.491920  0.159050  0.684640  1.0  -0.6569
  O  O582  1  0.479890  0.102280  0.651070  1.0  -0.5784
  O  O583  1  0.515480  0.157510  0.625000  1.0  -0.7709
  O  O584  1  0.364920  0.193710  0.650490  1.0  -0.5394
  O  O585  1  0.344130  0.993580  0.212560  1.0  -0.6384
  O  O586  1  0.366030  0.041960  0.178240  1.0  -0.6692
  O  O587  1  0.397770  0.096400  0.166840  1.0  -0.6654
  O  O588  1  0.458590  0.109910  0.168710  1.0  -0.7714
  O  O589  1  0.315360  0.008080  0.159050  1.0  -0.6562
  O  O590  1  0.348930  0.020110  0.102280  1.0  -0.5804
  O  O591  1  0.375000  0.984520  0.157510  1.0  -0.769
  O  O592  1  0.349510  0.135080  0.193710  1.0  -0.5425
  O  O593  1  0.844130  0.493580  0.712560  1.0  -0.6384
  O  O594  1  0.866030  0.541960  0.678240  1.0  -0.6692
  O  O595  1  0.897770  0.596400  0.666840  1.0  -0.6654
  O  O596  1  0.958590  0.609910  0.668710  1.0  -0.7714
  O  O597  1  0.815360  0.508080  0.659050  1.0  -0.6562
  O  O598  1  0.848930  0.520110  0.602280  1.0  -0.5804
  O  O599  1  0.875000  0.484520  0.657510  1.0  -0.769
  O  O600  1  0.849510  0.635080  0.693710  1.0  -0.5425
  O  O601  1  0.655870  0.493580  0.287440  1.0  -0.6381
  O  O602  1  0.633970  0.541960  0.321760  1.0  -0.6704
  O  O603  1  0.602230  0.596400  0.333160  1.0  -0.6647
  O  O604  1  0.541410  0.609910  0.331290  1.0  -0.7714
  O  O605  1  0.684640  0.508080  0.340950  1.0  -0.6561
  O  O606  1  0.651070  0.520110  0.397720  1.0  -0.5785
  O  O607  1  0.625000  0.484520  0.342490  1.0  -0.7694
  O  O608  1  0.650490  0.635080  0.306290  1.0  -0.543
  O  O609  1  0.155870  0.993580  0.787440  1.0  -0.6381
  O  O610  1  0.133970  0.041960  0.821760  1.0  -0.6704
  O  O611  1  0.102230  0.096400  0.833160  1.0  -0.6647
  O  O612  1  0.041410  0.109910  0.831290  1.0  -0.7714
  O  O613  1  0.184640  0.008080  0.840950  1.0  -0.6561
  O  O614  1  0.151070  0.020110  0.897720  1.0  -0.5785
  O  O615  1  0.125000  0.984520  0.842490  1.0  -0.7694
  O  O616  1  0.150490  0.135080  0.806290  1.0  -0.543
  O  O617  1  0.844130  0.506420  0.787440  1.0  -0.6382
  O  O618  1  0.866030  0.458040  0.821760  1.0  -0.6698
  O  O619  1  0.897770  0.403600  0.833160  1.0  -0.6663
  O  O620  1  0.958590  0.390090  0.831290  1.0  -0.7726
  O  O621  1  0.815360  0.491920  0.840950  1.0  -0.6547
  O  O622  1  0.848930  0.479890  0.897720  1.0  -0.5818
  O  O623  1  0.875000  0.515480  0.842490  1.0  -0.7699
  O  O624  1  0.849510  0.364920  0.806290  1.0  -0.5408
  O  O625  1  0.344130  0.006420  0.287440  1.0  -0.6382
  O  O626  1  0.366030  0.958040  0.321760  1.0  -0.6698
  O  O627  1  0.397770  0.903600  0.333160  1.0  -0.6663
  O  O628  1  0.458590  0.890090  0.331290  1.0  -0.7726
  O  O629  1  0.315360  0.991920  0.340950  1.0  -0.6547
  O  O630  1  0.348930  0.979890  0.397720  1.0  -0.5818
  O  O631  1  0.375000  0.015480  0.342490  1.0  -0.7699
  O  O632  1  0.349510  0.864920  0.306290  1.0  -0.5408
  O  O633  1  0.155870  0.006420  0.712560  1.0  -0.6383
  O  O634  1  0.133970  0.958040  0.678240  1.0  -0.6712
  O  O635  1  0.102230  0.903600  0.666840  1.0  -0.6661
  O  O636  1  0.041410  0.890090  0.668710  1.0  -0.7733
  O  O637  1  0.184640  0.991920  0.659050  1.0  -0.6563
  O  O638  1  0.151070  0.979890  0.602280  1.0  -0.5771
  O  O639  1  0.125000  0.015480  0.657510  1.0  -0.7692
  O  O640  1  0.150490  0.864920  0.693710  1.0  -0.5414
  O  O641  1  0.655870  0.506420  0.212560  1.0  -0.6383
  O  O642  1  0.633970  0.458040  0.178240  1.0  -0.6712
  O  O643  1  0.602230  0.403600  0.166840  1.0  -0.6661
  O  O644  1  0.541410  0.390090  0.168710  1.0  -0.7733
  O  O645  1  0.684640  0.491920  0.159050  1.0  -0.6563
  O  O646  1  0.651070  0.479890  0.102280  1.0  -0.5771
  O  O647  1  0.625000  0.515480  0.157510  1.0  -0.7692
  O  O648  1  0.650490  0.364920  0.193710  1.0  -0.5414
  O  O649  1  0.094130  0.462560  0.256420  1.0  -0.6387
  O  O650  1  0.116030  0.428240  0.208040  1.0  -0.6698
  O  O651  1  0.147770  0.416840  0.153600  1.0  -0.666
  O  O652  1  0.208590  0.418710  0.140090  1.0  -0.774
  O  O653  1  0.065360  0.409050  0.241920  1.0  -0.6549
  O  O654  1  0.098930  0.352280  0.229890  1.0  -0.5807
  O  O655  1  0.125000  0.407510  0.265480  1.0  -0.7688
  O  O656  1  0.099510  0.443710  0.114920  1.0  -0.5395
  O  O657  1  0.594130  0.962560  0.756420  1.0  -0.6387
  O  O658  1  0.616030  0.928240  0.708040  1.0  -0.6698
  O  O659  1  0.647770  0.916840  0.653600  1.0  -0.666
  O  O660  1  0.708590  0.918710  0.640090  1.0  -0.774
  O  O661  1  0.565360  0.909050  0.741920  1.0  -0.6549
  O  O662  1  0.598930  0.852280  0.729890  1.0  -0.5807
  O  O663  1  0.625000  0.907510  0.765480  1.0  -0.7688
  O  O664  1  0.599510  0.943710  0.614920  1.0  -0.5395
  O  O665  1  0.405870  0.537440  0.756420  1.0  -0.6383
  O  O666  1  0.383970  0.571760  0.708040  1.0  -0.6708
  O  O667  1  0.352230  0.583160  0.653600  1.0  -0.6667
  O  O668  1  0.291410  0.581290  0.640090  1.0  -0.7746
  O  O669  1  0.434640  0.590950  0.741920  1.0  -0.6561
  O  O670  1  0.401070  0.647720  0.729890  1.0  -0.5829
  O  O671  1  0.375000  0.592490  0.765480  1.0  -0.7687
  O  O672  1  0.400490  0.556290  0.614920  1.0  -0.5417
  O  O673  1  0.905870  0.037440  0.256420  1.0  -0.6383
  O  O674  1  0.883970  0.071760  0.208040  1.0  -0.6708
  O  O675  1  0.852230  0.083160  0.153600  1.0  -0.6667
  O  O676  1  0.791410  0.081290  0.140090  1.0  -0.7746
  O  O677  1  0.934640  0.090950  0.241920  1.0  -0.6561
  O  O678  1  0.901070  0.147720  0.229890  1.0  -0.5829
  O  O679  1  0.875000  0.092490  0.265480  1.0  -0.7687
  O  O680  1  0.900490  0.056290  0.114920  1.0  -0.5428
  O  O681  1  0.594130  0.037440  0.743580  1.0  -0.6391
  O  O682  1  0.616030  0.071760  0.791960  1.0  -0.6704
  O  O683  1  0.647770  0.083160  0.846400  1.0  -0.6653
  O  O684  1  0.708590  0.081290  0.859910  1.0  -0.7729
  O  O685  1  0.565360  0.090950  0.758080  1.0  -0.6551
  O  O686  1  0.598930  0.147720  0.770110  1.0  -0.5797
  O  O687  1  0.625000  0.092490  0.734520  1.0  -0.7684
  O  O688  1  0.599510  0.056290  0.885080  1.0  -0.5375
  O  O689  1  0.094130  0.537440  0.243580  1.0  -0.6391
  O  O690  1  0.116030  0.571760  0.291960  1.0  -0.6704
  O  O691  1  0.147770  0.583160  0.346400  1.0  -0.6653
  O  O692  1  0.208590  0.581290  0.359910  1.0  -0.7729
  O  O693  1  0.065360  0.590950  0.258080  1.0  -0.6551
  O  O694  1  0.098930  0.647720  0.270110  1.0  -0.5797
  O  O695  1  0.125000  0.592490  0.234520  1.0  -0.7684
  O  O696  1  0.099510  0.556290  0.385080  1.0  -0.5375
  O  O697  1  0.905870  0.962560  0.243580  1.0  -0.6382
  O  O698  1  0.883970  0.928240  0.291960  1.0  -0.6716
  O  O699  1  0.852230  0.916840  0.346400  1.0  -0.6635
  O  O700  1  0.791410  0.918710  0.359910  1.0  -0.773
  O  O701  1  0.934640  0.909050  0.258080  1.0  -0.6554
  O  O702  1  0.901070  0.852280  0.270110  1.0  -0.5806
  O  O703  1  0.875000  0.907510  0.234520  1.0  -0.7684
  O  O704  1  0.900490  0.943710  0.385080  1.0  -0.5413
  O  O705  1  0.405870  0.462560  0.743580  1.0  -0.6382
  O  O706  1  0.383970  0.428240  0.791960  1.0  -0.6716
  O  O707  1  0.352230  0.416840  0.846400  1.0  -0.6635
  O  O708  1  0.291410  0.418710  0.859910  1.0  -0.773
  O  O709  1  0.434640  0.409050  0.758080  1.0  -0.6554
  O  O710  1  0.401070  0.352280  0.770110  1.0  -0.5806
  O  O711  1  0.375000  0.407510  0.734520  1.0  -0.7684
  O  O712  1  0.400490  0.443710  0.885080  1.0  -0.5403
  O  O713  1  0.962560  0.243580  0.905870  1.0  -0.6377
  O  O714  1  0.928240  0.291960  0.883970  1.0  -0.673
  O  O715  1  0.916840  0.346400  0.852230  1.0  -0.6646
  O  O716  1  0.918710  0.359910  0.791410  1.0  -0.7727
  O  O717  1  0.909050  0.258080  0.934640  1.0  -0.6584
  O  O718  1  0.852280  0.270110  0.901070  1.0  -0.5765
  O  O719  1  0.907510  0.234520  0.875000  1.0  -0.7712
  O  O720  1  0.943710  0.385080  0.900490  1.0  -0.5421
  O  O721  1  0.462560  0.743580  0.405870  1.0  -0.6377
  O  O722  1  0.428240  0.791960  0.383970  1.0  -0.673
  O  O723  1  0.416840  0.846400  0.352230  1.0  -0.6646
  O  O724  1  0.418710  0.859910  0.291410  1.0  -0.7727
  O  O725  1  0.409050  0.758080  0.434640  1.0  -0.6584
  O  O726  1  0.352280  0.770110  0.401070  1.0  -0.5765
  O  O727  1  0.407510  0.734520  0.375000  1.0  -0.7712
  O  O728  1  0.443710  0.885080  0.400490  1.0  -0.5418
  O  O729  1  0.037440  0.743580  0.594130  1.0  -0.639
  O  O730  1  0.071760  0.791960  0.616030  1.0  -0.6712
  O  O731  1  0.083160  0.846400  0.647770  1.0  -0.6627
  O  O732  1  0.081290  0.859910  0.708590  1.0  -0.7733
  O  O733  1  0.090950  0.758080  0.565360  1.0  -0.6557
  O  O734  1  0.147720  0.770110  0.598930  1.0  -0.5775
  O  O735  1  0.092490  0.734520  0.625000  1.0  -0.772
  O  O736  1  0.056290  0.885080  0.599510  1.0  -0.541
  O  O737  1  0.537440  0.243580  0.094130  1.0  -0.639
  O  O738  1  0.571760  0.291960  0.116030  1.0  -0.6712
  O  O739  1  0.583160  0.346400  0.147770  1.0  -0.6627
  O  O740  1  0.581290  0.359910  0.208590  1.0  -0.7733
  O  O741  1  0.590950  0.258080  0.065360  1.0  -0.6557
  O  O742  1  0.647720  0.270110  0.098930  1.0  -0.5775
  O  O743  1  0.592490  0.234520  0.125000  1.0  -0.772
  O  O744  1  0.556290  0.385080  0.099510  1.0  -0.541
  O  O745  1  0.537440  0.756420  0.405870  1.0  -0.638
  O  O746  1  0.571760  0.708040  0.383970  1.0  -0.6722
  O  O747  1  0.583160  0.653600  0.352230  1.0  -0.6642
  O  O748  1  0.581290  0.640090  0.291410  1.0  -0.7738
  O  O749  1  0.590950  0.741920  0.434640  1.0  -0.6571
  O  O750  1  0.647720  0.729890  0.401070  1.0  -0.5763
  O  O751  1  0.592490  0.765480  0.375000  1.0  -0.7711
  O  O752  1  0.556290  0.614920  0.400490  1.0  -0.542
  O  O753  1  0.037440  0.256420  0.905870  1.0  -0.638
  O  O754  1  0.071760  0.208040  0.883970  1.0  -0.6722
  O  O755  1  0.083160  0.153600  0.852230  1.0  -0.6642
  O  O756  1  0.081290  0.140090  0.791410  1.0  -0.7738
  O  O757  1  0.090950  0.241920  0.934640  1.0  -0.6571
  O  O758  1  0.147720  0.229890  0.901070  1.0  -0.5763
  O  O759  1  0.092490  0.265480  0.875000  1.0  -0.7711
  O  O760  1  0.056290  0.114920  0.900490  1.0  -0.5433
  O  O761  1  0.462560  0.256420  0.094130  1.0  -0.6387
  O  O762  1  0.428240  0.208040  0.116030  1.0  -0.6718
  O  O763  1  0.416840  0.153600  0.147770  1.0  -0.6642
  O  O764  1  0.418710  0.140090  0.208590  1.0  -0.7752
  O  O765  1  0.409050  0.241920  0.065360  1.0  -0.6549
  O  O766  1  0.352280  0.229890  0.098930  1.0  -0.5763
  O  O767  1  0.407510  0.265480  0.125000  1.0  -0.7738
  O  O768  1  0.443710  0.114920  0.099510  1.0  -0.537
  O  O769  1  0.962560  0.756420  0.594130  1.0  -0.6387
  O  O770  1  0.928240  0.708040  0.616030  1.0  -0.6718
  O  O771  1  0.916840  0.653600  0.647770  1.0  -0.6642
  O  O772  1  0.918710  0.640090  0.708590  1.0  -0.7752
  O  O773  1  0.909050  0.741920  0.565360  1.0  -0.6549
  O  O774  1  0.852280  0.729890  0.598930  1.0  -0.5763
  O  O775  1  0.907510  0.765480  0.625000  1.0  -0.7738
  O  O776  1  0.943710  0.614920  0.599510  1.0  -0.537
  O  O777  1  0.743580  0.594130  0.037440  1.0  -0.6398
  O  O778  1  0.791960  0.616030  0.071760  1.0  -0.6689
  O  O779  1  0.846400  0.647770  0.083160  1.0  -0.6619
  O  O780  1  0.859910  0.708590  0.081290  1.0  -0.7732
  O  O781  1  0.758080  0.565360  0.090950  1.0  -0.6571
  O  O782  1  0.770110  0.598930  0.147720  1.0  -0.5784
  O  O783  1  0.734520  0.625000  0.092490  1.0  -0.7722
  O  O784  1  0.885080  0.599510  0.056290  1.0  -0.5394
  O  O785  1  0.243580  0.094130  0.537440  1.0  -0.6398
  O  O786  1  0.291960  0.116030  0.571760  1.0  -0.6689
  O  O787  1  0.346400  0.147770  0.583160  1.0  -0.6619
  O  O788  1  0.359910  0.208590  0.581290  1.0  -0.7732
  O  O789  1  0.258080  0.065360  0.590950  1.0  -0.6571
  O  O790  1  0.270110  0.098930  0.647720  1.0  -0.5784
  O  O791  1  0.234520  0.125000  0.592490  1.0  -0.7722
  O  O792  1  0.385080  0.099510  0.556290  1.0  -0.5394
  O  O793  1  0.243580  0.905870  0.962560  1.0  -0.6403
  O  O794  1  0.291960  0.883970  0.928240  1.0  -0.6705
  O  O795  1  0.346400  0.852230  0.916840  1.0  -0.6623
  O  O796  1  0.359910  0.791410  0.918710  1.0  -0.7728
  O  O797  1  0.258080  0.934640  0.909050  1.0  -0.6583
  O  O798  1  0.270110  0.901070  0.852280  1.0  -0.5762
  O  O799  1  0.234520  0.875000  0.907510  1.0  -0.7711
  O  O800  1  0.385080  0.900490  0.943710  1.0  -0.5425
  O  O801  1  0.743580  0.405870  0.462560  1.0  -0.6403
  O  O802  1  0.791960  0.383970  0.428240  1.0  -0.6705
  O  O803  1  0.846400  0.352230  0.416840  1.0  -0.6623
  O  O804  1  0.859910  0.291410  0.418710  1.0  -0.7728
  O  O805  1  0.758080  0.434640  0.409050  1.0  -0.6583
  O  O806  1  0.770110  0.401070  0.352280  1.0  -0.5762
  O  O807  1  0.734520  0.375000  0.407510  1.0  -0.7711
  O  O808  1  0.885080  0.400490  0.443710  1.0  -0.5407
  O  O809  1  0.256420  0.094130  0.462560  1.0  -0.6406
  O  O810  1  0.208040  0.116030  0.428240  1.0  -0.6701
  O  O811  1  0.153600  0.147770  0.416840  1.0  -0.663
  O  O812  1  0.140090  0.208590  0.418710  1.0  -0.772
  O  O813  1  0.241920  0.065360  0.409050  1.0  -0.6579
  O  O814  1  0.229890  0.098930  0.352280  1.0  -0.578
  O  O815  1  0.265480  0.125000  0.407510  1.0  -0.7718
  O  O816  1  0.114920  0.099510  0.443710  1.0  -0.54
  O  O817  1  0.756420  0.594130  0.962560  1.0  -0.6406
  O  O818  1  0.708040  0.616030  0.928240  1.0  -0.6701
  O  O819  1  0.653600  0.647770  0.916840  1.0  -0.663
  O  O820  1  0.640090  0.708590  0.918710  1.0  -0.772
  O  O821  1  0.741920  0.565360  0.909050  1.0  -0.6579
  O  O822  1  0.729890  0.598930  0.852280  1.0  -0.578
  O  O823  1  0.765480  0.625000  0.907510  1.0  -0.7718
  O  O824  1  0.614920  0.599510  0.943710  1.0  -0.54
  O  O825  1  0.756420  0.405870  0.537440  1.0  -0.6403
  O  O826  1  0.708040  0.383970  0.571760  1.0  -0.6701
  O  O827  1  0.653600  0.352230  0.583160  1.0  -0.6623
  O  O828  1  0.640090  0.291410  0.581290  1.0  -0.772
  O  O829  1  0.741920  0.434640  0.590950  1.0  -0.6593
  O  O830  1  0.729890  0.401070  0.647720  1.0  -0.5768
  O  O831  1  0.765480  0.375000  0.592490  1.0  -0.7717
  O  O832  1  0.614920  0.400490  0.556290  1.0  -0.5397
  O  O833  1  0.256420  0.905870  0.037440  1.0  -0.6403
  O  O834  1  0.208040  0.883970  0.071760  1.0  -0.6701
  O  O835  1  0.153600  0.852230  0.083160  1.0  -0.6623
  O  O836  1  0.140090  0.791410  0.081290  1.0  -0.772
  O  O837  1  0.241920  0.934640  0.090950  1.0  -0.6593
  O  O838  1  0.229890  0.901070  0.147720  1.0  -0.5768
  O  O839  1  0.265480  0.875000  0.092490  1.0  -0.7717
  O  O840  1  0.114920  0.900490  0.056290  1.0  -0.5417
  O  O841  1  0.787440  0.655870  0.006420  1.0  -0.639
  O  O842  1  0.821760  0.633970  0.958040  1.0  -0.6708
  O  O843  1  0.833160  0.602230  0.903600  1.0  -0.6639
  O  O844  1  0.831290  0.541410  0.890090  1.0  -0.7758
  O  O845  1  0.840950  0.684640  0.991920  1.0  -0.6588
  O  O846  1  0.897720  0.651070  0.979890  1.0  -0.5789
  O  O847  1  0.842490  0.625000  0.015480  1.0  -0.7706
  O  O848  1  0.806290  0.650490  0.864920  1.0  -0.5412
  O  O849  1  0.287440  0.155870  0.506420  1.0  -0.639
  O  O850  1  0.321760  0.133970  0.458040  1.0  -0.6708
  O  O851  1  0.333160  0.102230  0.403600  1.0  -0.6639
  O  O852  1  0.331290  0.041410  0.390090  1.0  -0.7758
  O  O853  1  0.340950  0.184640  0.491920  1.0  -0.6588
  O  O854  1  0.397720  0.151070  0.479890  1.0  -0.5789
  O  O855  1  0.342490  0.125000  0.515480  1.0  -0.7706
  O  O856  1  0.306290  0.150490  0.364920  1.0  -0.5412
  O  O857  1  0.712560  0.344130  0.506420  1.0  -0.6395
  O  O858  1  0.678240  0.366030  0.458040  1.0  -0.6719
  O  O859  1  0.666840  0.397770  0.403600  1.0  -0.6647
  O  O860  1  0.668710  0.458590  0.390090  1.0  -0.7761
  O  O861  1  0.659050  0.315360  0.491920  1.0  -0.6584
  O  O862  1  0.602280  0.348930  0.479890  1.0  -0.5786
  O  O863  1  0.657510  0.375000  0.515480  1.0  -0.7716
  O  O864  1  0.693710  0.349510  0.364920  1.0  -0.5397
  O  O865  1  0.212560  0.844130  0.006420  1.0  -0.6395
  O  O866  1  0.178240  0.866030  0.958040  1.0  -0.6719
  O  O867  1  0.166840  0.897770  0.903600  1.0  -0.6647
  O  O868  1  0.168710  0.958590  0.890090  1.0  -0.7761
  O  O869  1  0.159050  0.815360  0.991920  1.0  -0.6584
  O  O870  1  0.102280  0.848930  0.979890  1.0  -0.5786
  O  O871  1  0.157510  0.875000  0.015480  1.0  -0.7716
  O  O872  1  0.193710  0.849510  0.864920  1.0  -0.5397
  O  O873  1  0.212560  0.155870  0.493580  1.0  -0.6392
  O  O874  1  0.178240  0.133970  0.541960  1.0  -0.6731
  O  O875  1  0.166840  0.102230  0.596400  1.0  -0.6624
  O  O876  1  0.168710  0.041410  0.609910  1.0  -0.7742
  O  O877  1  0.159050  0.184640  0.508080  1.0  -0.6594
  O  O878  1  0.102280  0.151070  0.520110  1.0  -0.5747
  O  O879  1  0.157510  0.125000  0.484520  1.0  -0.7706
  O  O880  1  0.193710  0.150490  0.635080  1.0  -0.539
  O  O881  1  0.712560  0.655870  0.993580  1.0  -0.6392
  O  O882  1  0.678240  0.633970  0.041960  1.0  -0.6731
  O  O883  1  0.666840  0.602230  0.096400  1.0  -0.6624
  O  O884  1  0.668710  0.541410  0.109910  1.0  -0.7742
  O  O885  1  0.659050  0.684640  0.008080  1.0  -0.6594
  O  O886  1  0.602280  0.651070  0.020110  1.0  -0.5747
  O  O887  1  0.657510  0.625000  0.984520  1.0  -0.7706
  O  O888  1  0.693710  0.650490  0.135080  1.0  -0.539
  O  O889  1  0.287440  0.844130  0.993580  1.0  -0.6395
  O  O890  1  0.321760  0.866030  0.041960  1.0  -0.672
  O  O891  1  0.333160  0.897770  0.096400  1.0  -0.6612
  O  O892  1  0.331290  0.958590  0.109910  1.0  -0.7741
  O  O893  1  0.340950  0.815360  0.008080  1.0  -0.6581
  O  O894  1  0.397720  0.848930  0.020110  1.0  -0.5786
  O  O895  1  0.342490  0.875000  0.984520  1.0  -0.7706
  O  O896  1  0.306290  0.849510  0.135080  1.0  -0.5401
  O  O897  1  0.787440  0.344130  0.493580  1.0  -0.6395
  O  O898  1  0.821760  0.366030  0.541960  1.0  -0.672
  O  O899  1  0.833160  0.397770  0.596400  1.0  -0.6612
  O  O900  1  0.831290  0.458590  0.609910  1.0  -0.7741
  O  O901  1  0.840950  0.315360  0.508080  1.0  -0.6581
  O  O902  1  0.897720  0.348930  0.520110  1.0  -0.5786
  O  O903  1  0.842490  0.375000  0.484520  1.0  -0.7706
  O  O904  1  0.806290  0.349510  0.635080  1.0  -0.5401
  O  O905  1  0.006420  0.787440  0.655870  1.0  -0.6396
  O  O906  1  0.958040  0.821760  0.633970  1.0  -0.6703
  O  O907  1  0.903600  0.833160  0.602230  1.0  -0.664
  O  O908  1  0.890090  0.831290  0.541410  1.0  -0.771
  O  O909  1  0.991920  0.840950  0.684640  1.0  -0.6571
  O  O910  1  0.979890  0.897720  0.651070  1.0  -0.5806
  O  O911  1  0.015480  0.842490  0.625000  1.0  -0.7711
  O  O912  1  0.864920  0.806290  0.650490  1.0  -0.5391
  O  O913  1  0.506420  0.287440  0.155870  1.0  -0.6396
  O  O914  1  0.458040  0.321760  0.133970  1.0  -0.6703
  O  O915  1  0.403600  0.333160  0.102230  1.0  -0.664
  O  O916  1  0.390090  0.331290  0.041410  1.0  -0.771
  O  O917  1  0.491920  0.340950  0.184640  1.0  -0.6571
  O  O918  1  0.479890  0.397720  0.151070  1.0  -0.5806
  O  O919  1  0.515480  0.342490  0.125000  1.0  -0.7711
  O  O920  1  0.364920  0.306290  0.150490  1.0  -0.5391
  O  O921  1  0.506420  0.712560  0.344130  1.0  -0.6399
  O  O922  1  0.458040  0.678240  0.366030  1.0  -0.6695
  O  O923  1  0.403600  0.666840  0.397770  1.0  -0.6622
  O  O924  1  0.390090  0.668710  0.458590  1.0  -0.7722
  O  O925  1  0.491920  0.659050  0.315360  1.0  -0.6547
  O  O926  1  0.479890  0.602280  0.348930  1.0  -0.5787
  O  O927  1  0.515480  0.657510  0.375000  1.0  -0.7726
  O  O928  1  0.364920  0.693710  0.349510  1.0  -0.5373
  O  O929  1  0.006420  0.212560  0.844130  1.0  -0.6399
  O  O930  1  0.958040  0.178240  0.866030  1.0  -0.6695
  O  O931  1  0.903600  0.166840  0.897770  1.0  -0.6622
  O  O932  1  0.890090  0.168710  0.958590  1.0  -0.7722
  O  O933  1  0.991920  0.159050  0.815360  1.0  -0.6547
  O  O934  1  0.979890  0.102280  0.848930  1.0  -0.5787
  O  O935  1  0.015480  0.157510  0.875000  1.0  -0.7726
  O  O936  1  0.864920  0.193710  0.849510  1.0  -0.5373
  O  O937  1  0.493580  0.212560  0.155870  1.0  -0.6391
  O  O938  1  0.541960  0.178240  0.133970  1.0  -0.671
  O  O939  1  0.596400  0.166840  0.102230  1.0  -0.6621
  O  O940  1  0.609910  0.168710  0.041410  1.0  -0.7727
  O  O941  1  0.508080  0.159050  0.184640  1.0  -0.6561
  O  O942  1  0.520110  0.102280  0.151070  1.0  -0.5762
  O  O943  1  0.484520  0.157510  0.125000  1.0  -0.7713
  O  O944  1  0.635080  0.193710  0.150490  1.0  -0.5395
  O  O945  1  0.993580  0.712560  0.655870  1.0  -0.6391
  O  O946  1  0.041960  0.678240  0.633970  1.0  -0.671
  O  O947  1  0.096400  0.666840  0.602230  1.0  -0.6621
  O  O948  1  0.109910  0.668710  0.541410  1.0  -0.7727
  O  O949  1  0.008080  0.659050  0.684640  1.0  -0.6561
  O  O950  1  0.020110  0.602280  0.651070  1.0  -0.5762
  O  O951  1  0.984520  0.657510  0.625000  1.0  -0.7713
  O  O952  1  0.135080  0.693710  0.650490  1.0  -0.5395
  O  O953  1  0.993580  0.287440  0.844130  1.0  -0.6397
  O  O954  1  0.041960  0.321760  0.866030  1.0  -0.6689
  O  O955  1  0.096400  0.333160  0.897770  1.0  -0.6631
  O  O956  1  0.109910  0.331290  0.958590  1.0  -0.773
  O  O957  1  0.008080  0.340950  0.815360  1.0  -0.6548
  O  O958  1  0.020110  0.397720  0.848930  1.0  -0.5794
  O  O959  1  0.984520  0.342490  0.875000  1.0  -0.773
  O  O960  1  0.135080  0.306290  0.849510  1.0  -0.5377
  O  O961  1  0.493580  0.787440  0.344130  1.0  -0.6397
  O  O962  1  0.541960  0.821760  0.366030  1.0  -0.6689
  O  O963  1  0.596400  0.833160  0.397770  1.0  -0.6631
  O  O964  1  0.609910  0.831290  0.458590  1.0  -0.773
  O  O965  1  0.508080  0.840950  0.315360  1.0  -0.6548
  O  O966  1  0.520110  0.897720  0.348930  1.0  -0.5794
  O  O967  1  0.484520  0.842490  0.375000  1.0  -0.773
  O  O968  1  0.635080  0.806290  0.349510  1.0  -0.5377
  O  O969  1  0.655870  0.006420  0.787440  1.0  -0.6379
  O  O970  1  0.633970  0.958040  0.821760  1.0  -0.6709
  O  O971  1  0.602230  0.903600  0.833160  1.0  -0.6653
  O  O972  1  0.541410  0.890090  0.831290  1.0  -0.7735
  O  O973  1  0.684640  0.991920  0.840950  1.0  -0.6558
  O  O974  1  0.651070  0.979890  0.897720  1.0  -0.5812
  O  O975  1  0.625000  0.015480  0.842490  1.0  -0.7697
  O  O976  1  0.650490  0.864920  0.806290  1.0  -0.541
  O  O977  1  0.155870  0.506420  0.287440  1.0  -0.6379
  O  O978  1  0.133970  0.458040  0.321760  1.0  -0.6709
  O  O979  1  0.102230  0.403600  0.333160  1.0  -0.6653
  O  O980  1  0.041410  0.390090  0.331290  1.0  -0.7735
  O  O981  1  0.184640  0.491920  0.340950  1.0  -0.6558
  O  O982  1  0.151070  0.479890  0.397720  1.0  -0.5812
  O  O983  1  0.125000  0.515480  0.342490  1.0  -0.7697
  O  O984  1  0.150490  0.364920  0.306290  1.0  -0.541
  O  O985  1  0.344130  0.506420  0.712560  1.0  -0.6383
  O  O986  1  0.366030  0.458040  0.678240  1.0  -0.6698
  O  O987  1  0.397770  0.403600  0.666840  1.0  -0.6664
  O  O988  1  0.458590  0.390090  0.668710  1.0  -0.7724
  O  O989  1  0.315360  0.491920  0.659050  1.0  -0.6552
  O  O990  1  0.348930  0.479890  0.602280  1.0  -0.5782
  O  O991  1  0.375000  0.515480  0.657510  1.0  -0.7692
  O  O992  1  0.349510  0.364920  0.693710  1.0  -0.5408
  O  O993  1  0.844130  0.006420  0.212560  1.0  -0.6383
  O  O994  1  0.866030  0.958040  0.178240  1.0  -0.6698
  O  O995  1  0.897770  0.903600  0.166840  1.0  -0.6664
  O  O996  1  0.958590  0.890090  0.168710  1.0  -0.7724
  O  O997  1  0.815360  0.991920  0.159050  1.0  -0.6552
  O  O998  1  0.848930  0.979890  0.102280  1.0  -0.5782
  O  O999  1  0.875000  0.015480  0.157510  1.0  -0.7692
  O  O1000  1  0.849510  0.864920  0.193710  1.0  -0.5408
  O  O1001  1  0.155870  0.493580  0.212560  1.0  -0.6385
  O  O1002  1  0.133970  0.541960  0.178240  1.0  -0.6707
  O  O1003  1  0.102230  0.596400  0.166840  1.0  -0.6652
  O  O1004  1  0.041410  0.609910  0.168710  1.0  -0.7712
  O  O1005  1  0.184640  0.508080  0.159050  1.0  -0.6565
  O  O1006  1  0.151070  0.520110  0.102280  1.0  -0.5791
  O  O1007  1  0.125000  0.484520  0.157510  1.0  -0.7691
  O  O1008  1  0.150490  0.635080  0.193710  1.0  -0.5434
  O  O1009  1  0.655870  0.993580  0.712560  1.0  -0.6385
  O  O1010  1  0.633970  0.041960  0.678240  1.0  -0.6707
  O  O1011  1  0.602230  0.096400  0.666840  1.0  -0.6652
  O  O1012  1  0.541410  0.109910  0.668710  1.0  -0.7712
  O  O1013  1  0.684640  0.008080  0.659050  1.0  -0.6565
  O  O1014  1  0.651070  0.020110  0.602280  1.0  -0.5791
  O  O1015  1  0.625000  0.984520  0.657510  1.0  -0.7691
  O  O1016  1  0.650490  0.135080  0.693710  1.0  -0.5434
  O  O1017  1  0.844130  0.993580  0.287440  1.0  -0.6388
  O  O1018  1  0.866030  0.041960  0.321760  1.0  -0.6689
  O  O1019  1  0.897770  0.096400  0.333160  1.0  -0.6655
  O  O1020  1  0.958590  0.109910  0.331290  1.0  -0.7716
  O  O1021  1  0.815360  0.008080  0.340950  1.0  -0.6558
  O  O1022  1  0.848930  0.020110  0.397720  1.0  -0.5787
  O  O1023  1  0.875000  0.984520  0.342490  1.0  -0.7695
  O  O1024  1  0.849510  0.135080  0.306290  1.0  -0.5424
  O  O1025  1  0.344130  0.493580  0.787440  1.0  -0.6388
  O  O1026  1  0.366030  0.541960  0.821760  1.0  -0.6689
  O  O1027  1  0.397770  0.596400  0.833160  1.0  -0.6655
  O  O1028  1  0.458590  0.609910  0.831290  1.0  -0.7716
  O  O1029  1  0.315360  0.508080  0.840950  1.0  -0.6558
  O  O1030  1  0.348930  0.520110  0.897720  1.0  -0.5787
  O  O1031  1  0.375000  0.484520  0.842490  1.0  -0.7695
  O  O1032  1  0.349510  0.635080  0.806290  1.0  -0.5424
  O  O1033  1  0.905870  0.537440  0.743580  1.0  -0.6384
  O  O1034  1  0.883970  0.571760  0.791960  1.0  -0.6716
  O  O1035  1  0.852230  0.583160  0.846400  1.0  -0.6646
  O  O1036  1  0.791410  0.581290  0.859910  1.0  -0.7729
  O  O1037  1  0.934640  0.590950  0.758080  1.0  -0.6557
  O  O1038  1  0.901070  0.647720  0.770110  1.0  -0.5787
  O  O1039  1  0.875000  0.592490  0.734520  1.0  -0.7688
  O  O1040  1  0.900490  0.556290  0.885080  1.0  -0.5404
  O  O1041  1  0.405870  0.037440  0.243580  1.0  -0.6384
  O  O1042  1  0.383970  0.071760  0.291960  1.0  -0.6716
  O  O1043  1  0.352230  0.083160  0.346400  1.0  -0.6646
  O  O1044  1  0.291410  0.081290  0.359910  1.0  -0.7729
  O  O1045  1  0.434640  0.090950  0.258080  1.0  -0.6557
  O  O1046  1  0.401070  0.147720  0.270110  1.0  -0.5787
  O  O1047  1  0.375000  0.092490  0.234520  1.0  -0.7688
  O  O1048  1  0.400490  0.056290  0.385080  1.0  -0.5404
  O  O1049  1  0.594130  0.462560  0.243580  1.0  -0.6387
  O  O1050  1  0.616030  0.428240  0.291960  1.0  -0.6703
  O  O1051  1  0.647770  0.416840  0.346400  1.0  -0.6636
  O  O1052  1  0.708590  0.418710  0.359910  1.0  -0.7729
  O  O1053  1  0.565360  0.409050  0.258080  1.0  -0.655
  O  O1054  1  0.598930  0.352280  0.270110  1.0  -0.5817
  O  O1055  1  0.625000  0.407510  0.234520  1.0  -0.7682
  O  O1056  1  0.599510  0.443710  0.385080  1.0  -0.5377
  O  O1057  1  0.094130  0.962560  0.743580  1.0  -0.6387
  O  O1058  1  0.116030  0.928240  0.791960  1.0  -0.6703
  O  O1059  1  0.147770  0.916840  0.846400  1.0  -0.6636
  O  O1060  1  0.208590  0.918710  0.859910  1.0  -0.7729
  O  O1061  1  0.065360  0.909050  0.758080  1.0  -0.655
  O  O1062  1  0.098930  0.852280  0.770110  1.0  -0.5817
  O  O1063  1  0.125000  0.907510  0.734520  1.0  -0.7682
  O  O1064  1  0.099510  0.943710  0.885080  1.0  -0.5391
  O  O1065  1  0.405870  0.962560  0.256420  1.0  -0.6383
  O  O1066  1  0.383970  0.928240  0.208040  1.0  -0.6709
  O  O1067  1  0.352230  0.916840  0.153600  1.0  -0.6661
  O  O1068  1  0.291410  0.918710  0.140090  1.0  -0.7747
  O  O1069  1  0.434640  0.909050  0.241920  1.0  -0.6557
  O  O1070  1  0.401070  0.852280  0.229890  1.0  -0.5798
  O  O1071  1  0.375000  0.907510  0.265480  1.0  -0.7687
  O  O1072  1  0.400490  0.943710  0.114920  1.0  -0.5407
  O  O1073  1  0.905870  0.462560  0.756420  1.0  -0.6383
  O  O1074  1  0.883970  0.428240  0.708040  1.0  -0.6709
  O  O1075  1  0.852230  0.416840  0.653600  1.0  -0.6661
  O  O1076  1  0.791410  0.418710  0.640090  1.0  -0.7747
  O  O1077  1  0.934640  0.409050  0.741920  1.0  -0.6557
  O  O1078  1  0.901070  0.352280  0.729890  1.0  -0.5798
  O  O1079  1  0.875000  0.407510  0.765480  1.0  -0.7687
  O  O1080  1  0.900490  0.443710  0.614920  1.0  -0.5407
  O  O1081  1  0.094130  0.037440  0.756420  1.0  -0.6388
  O  O1082  1  0.116030  0.071760  0.708040  1.0  -0.6696
  O  O1083  1  0.147770  0.083160  0.653600  1.0  -0.6669
  O  O1084  1  0.208590  0.081290  0.640090  1.0  -0.774
  O  O1085  1  0.065360  0.090950  0.741920  1.0  -0.6553
  O  O1086  1  0.098930  0.147720  0.729890  1.0  -0.5844
  O  O1087  1  0.125000  0.092490  0.765480  1.0  -0.7688
  O  O1088  1  0.099510  0.056290  0.614920  1.0  -0.5412
  O  O1089  1  0.594130  0.537440  0.256420  1.0  -0.6388
  O  O1090  1  0.616030  0.571760  0.208040  1.0  -0.6696
  O  O1091  1  0.647770  0.583160  0.153600  1.0  -0.6669
  O  O1092  1  0.708590  0.581290  0.140090  1.0  -0.774
  O  O1093  1  0.565360  0.590950  0.241920  1.0  -0.6553
  O  O1094  1  0.598930  0.647720  0.229890  1.0  -0.5844
  O  O1095  1  0.625000  0.592490  0.265480  1.0  -0.7688
  O  O1096  1  0.599510  0.556290  0.114920  1.0  -0.5397
  O  O1097  1  0.037440  0.756420  0.094130  1.0  -0.6388
  O  O1098  1  0.071760  0.708040  0.116030  1.0  -0.6714
  O  O1099  1  0.083160  0.653600  0.147770  1.0  -0.6628
  O  O1100  1  0.081290  0.640090  0.208590  1.0  -0.7742
  O  O1101  1  0.090950  0.741920  0.065360  1.0  -0.654
  O  O1102  1  0.147720  0.729890  0.098930  1.0  -0.5766
  O  O1103  1  0.092490  0.765480  0.125000  1.0  -0.7728
  O  O1104  1  0.056290  0.614920  0.099510  1.0  -0.5385
  O  O1105  1  0.537440  0.256420  0.594130  1.0  -0.6388
  O  O1106  1  0.571760  0.208040  0.616030  1.0  -0.6714
  O  O1107  1  0.583160  0.153600  0.647770  1.0  -0.6628
  O  O1108  1  0.581290  0.140090  0.708590  1.0  -0.7742
  O  O1109  1  0.590950  0.241920  0.565360  1.0  -0.654
  O  O1110  1  0.647720  0.229890  0.598930  1.0  -0.5766
  O  O1111  1  0.592490  0.265480  0.625000  1.0  -0.7728
  O  O1112  1  0.556290  0.114920  0.599510  1.0  -0.537
  O  O1113  1  0.962560  0.256420  0.405870  1.0  -0.6374
  O  O1114  1  0.928240  0.208040  0.383970  1.0  -0.672
  O  O1115  1  0.916840  0.153600  0.352230  1.0  -0.6652
  O  O1116  1  0.918710  0.140090  0.291410  1.0  -0.7748
  O  O1117  1  0.909050  0.241920  0.434640  1.0  -0.6577
  O  O1118  1  0.852280  0.229890  0.401070  1.0  -0.5759
  O  O1119  1  0.907510  0.265480  0.375000  1.0  -0.7715
  O  O1120  1  0.943710  0.114920  0.400490  1.0  -0.5427
  O  O1121  1  0.462560  0.756420  0.905870  1.0  -0.6374
  O  O1122  1  0.428240  0.708040  0.883970  1.0  -0.672
  O  O1123  1  0.416840  0.653600  0.852230  1.0  -0.6652
  O  O1124  1  0.418710  0.640090  0.791410  1.0  -0.7748
  O  O1125  1  0.409050  0.741920  0.934640  1.0  -0.6577
  O  O1126  1  0.352280  0.729890  0.901070  1.0  -0.5759
  O  O1127  1  0.407510  0.765480  0.875000  1.0  -0.7715
  O  O1128  1  0.443710  0.614920  0.900490  1.0  -0.5427
  O  O1129  1  0.462560  0.243580  0.594130  1.0  -0.6391
  O  O1130  1  0.428240  0.291960  0.616030  1.0  -0.6717
  O  O1131  1  0.416840  0.346400  0.647770  1.0  -0.6635
  O  O1132  1  0.418710  0.359910  0.708590  1.0  -0.7738
  O  O1133  1  0.409050  0.258080  0.565360  1.0  -0.6567
  O  O1134  1  0.352280  0.270110  0.598930  1.0  -0.5763
  O  O1135  1  0.407510  0.234520  0.625000  1.0  -0.7729
  O  O1136  1  0.443710  0.385080  0.599510  1.0  -0.5405
  O  O1137  1  0.962560  0.743580  0.094130  1.0  -0.6391
  O  O1138  1  0.928240  0.791960  0.116030  1.0  -0.6717
  O  O1139  1  0.916840  0.846400  0.147770  1.0  -0.6635
  O  O1140  1  0.918710  0.859910  0.208590  1.0  -0.7738
  O  O1141  1  0.909050  0.758080  0.065360  1.0  -0.6567
  O  O1142  1  0.852280  0.770110  0.098930  1.0  -0.5763
  O  O1143  1  0.907510  0.734520  0.125000  1.0  -0.7729
  O  O1144  1  0.943710  0.885080  0.099510  1.0  -0.5415
  O  O1145  1  0.537440  0.743580  0.905870  1.0  -0.6381
  O  O1146  1  0.571760  0.791960  0.883970  1.0  -0.6727
  O  O1147  1  0.583160  0.846400  0.852230  1.0  -0.6638
  O  O1148  1  0.581290  0.859910  0.791410  1.0  -0.7722
  O  O1149  1  0.590950  0.758080  0.934640  1.0  -0.6582
  O  O1150  1  0.647720  0.770110  0.901070  1.0  -0.5774
  O  O1151  1  0.592490  0.734520  0.875000  1.0  -0.7709
  O  O1152  1  0.556290  0.885080  0.900490  1.0  -0.5407
  O  O1153  1  0.037440  0.243580  0.405870  1.0  -0.6381
  O  O1154  1  0.071760  0.291960  0.383970  1.0  -0.6727
  O  O1155  1  0.083160  0.346400  0.352230  1.0  -0.6638
  O  O1156  1  0.081290  0.359910  0.291410  1.0  -0.7722
  O  O1157  1  0.090950  0.258080  0.434640  1.0  -0.6582
  O  O1158  1  0.147720  0.270110  0.401070  1.0  -0.5774
  O  O1159  1  0.092490  0.234520  0.375000  1.0  -0.7709
  O  O1160  1  0.056290  0.385080  0.400490  1.0  -0.5407
  O  O1161  1  0.256420  0.405870  0.962560  1.0  -0.6401
  O  O1162  1  0.208040  0.383970  0.928240  1.0  -0.67
  O  O1163  1  0.153600  0.352230  0.916840  1.0  -0.6627
  O  O1164  1  0.140090  0.291410  0.918710  1.0  -0.7717
  O  O1165  1  0.241920  0.434640  0.909050  1.0  -0.659
  O  O1166  1  0.229890  0.401070  0.852280  1.0  -0.5782
  O  O1167  1  0.265480  0.375000  0.907510  1.0  -0.7713
  O  O1168  1  0.114920  0.400490  0.943710  1.0  -0.5413
  O  O1169  1  0.756420  0.905870  0.462560  1.0  -0.6401
  O  O1170  1  0.708040  0.883970  0.428240  1.0  -0.67
  O  O1171  1  0.653600  0.852230  0.416840  1.0  -0.6627
  O  O1172  1  0.640090  0.791410  0.418710  1.0  -0.7717
  O  O1173  1  0.741920  0.934640  0.409050  1.0  -0.659
  O  O1174  1  0.729890  0.901070  0.352280  1.0  -0.5782
  O  O1175  1  0.765480  0.875000  0.407510  1.0  -0.7713
  O  O1176  1  0.614920  0.900490  0.443710  1.0  -0.5413
  O  O1177  1  0.756420  0.094130  0.037440  1.0  -0.6399
  O  O1178  1  0.708040  0.116030  0.071760  1.0  -0.6701
  O  O1179  1  0.653600  0.147770  0.083160  1.0  -0.6624
  O  O1180  1  0.640090  0.208590  0.081290  1.0  -0.7723
  O  O1181  1  0.741920  0.065360  0.090950  1.0  -0.6573
  O  O1182  1  0.729890  0.098930  0.147720  1.0  -0.577
  O  O1183  1  0.765480  0.125000  0.092490  1.0  -0.772
  O  O1184  1  0.614920  0.099510  0.056290  1.0  -0.5425
  O  O1185  1  0.256420  0.594130  0.537440  1.0  -0.6399
  O  O1186  1  0.208040  0.616030  0.571760  1.0  -0.6701
  O  O1187  1  0.153600  0.647770  0.583160  1.0  -0.6624
  O  O1188  1  0.140090  0.708590  0.581290  1.0  -0.7723
  O  O1189  1  0.241920  0.565360  0.590950  1.0  -0.6573
  O  O1190  1  0.229890  0.598930  0.647720  1.0  -0.577
  O  O1191  1  0.265480  0.625000  0.592490  1.0  -0.772
  O  O1192  1  0.114920  0.599510  0.556290  1.0  -0.5405
  O  O1193  1  0.743580  0.905870  0.537440  1.0  -0.64
  O  O1194  1  0.791960  0.883970  0.571760  1.0  -0.671
  O  O1195  1  0.846400  0.852230  0.583160  1.0  -0.6628
  O  O1196  1  0.859910  0.791410  0.581290  1.0  -0.773
  O  O1197  1  0.758080  0.934640  0.590950  1.0  -0.6581
  O  O1198  1  0.770110  0.901070  0.647720  1.0  -0.5776
  O  O1199  1  0.734520  0.875000  0.592490  1.0  -0.7716
  O  O1200  1  0.885080  0.900490  0.556290  1.0  -0.5394
  O  O1201  1  0.243580  0.405870  0.037440  1.0  -0.64
  O  O1202  1  0.291960  0.383970  0.071760  1.0  -0.671
  O  O1203  1  0.346400  0.352230  0.083160  1.0  -0.6628
  O  O1204  1  0.359910  0.291410  0.081290  1.0  -0.773
  O  O1205  1  0.258080  0.434640  0.090950  1.0  -0.6581
  O  O1206  1  0.270110  0.401070  0.147720  1.0  -0.5776
  O  O1207  1  0.234520  0.375000  0.092490  1.0  -0.7716
  O  O1208  1  0.385080  0.400490  0.056290  1.0  -0.5394
  O  O1209  1  0.243580  0.594130  0.462560  1.0  -0.641
  O  O1210  1  0.291960  0.616030  0.428240  1.0  -0.6688
  O  O1211  1  0.346400  0.647770  0.416840  1.0  -0.662
  O  O1212  1  0.359910  0.708590  0.418710  1.0  -0.7729
  O  O1213  1  0.258080  0.565360  0.409050  1.0  -0.658
  O  O1214  1  0.270110  0.598930  0.352280  1.0  -0.5771
  O  O1215  1  0.234520  0.625000  0.407510  1.0  -0.772
  O  O1216  1  0.385080  0.599510  0.443710  1.0  -0.5389
  O  O1217  1  0.743580  0.094130  0.962560  1.0  -0.641
  O  O1218  1  0.791960  0.116030  0.928240  1.0  -0.6688
  O  O1219  1  0.846400  0.147770  0.916840  1.0  -0.662
  O  O1220  1  0.859910  0.208590  0.918710  1.0  -0.7729
  O  O1221  1  0.758080  0.065360  0.909050  1.0  -0.658
  O  O1222  1  0.770110  0.098930  0.852280  1.0  -0.5771
  O  O1223  1  0.734520  0.125000  0.907510  1.0  -0.772
  O  O1224  1  0.885080  0.099510  0.943710  1.0  -0.541
  O  O1225  1  0.125000  0.264980  0.985020  1.0  -0.6728
  O  O1226  1  0.625000  0.764980  0.485020  1.0  -0.6554
  O  O1227  1  0.375000  0.735020  0.485020  1.0  -0.6518
  O  O1228  1  0.875000  0.764980  0.514980  1.0  -0.6513
  O  O1229  1  0.625000  0.235020  0.014980  1.0  -0.6623
  O  O1230  1  0.985020  0.125000  0.264980  1.0  -0.6638
  O  O1231  1  0.485020  0.625000  0.764980  1.0  -0.6456
  O  O1232  1  0.485020  0.375000  0.735020  1.0  -0.6472
  O  O1233  1  0.514980  0.875000  0.764980  1.0  -0.6471
  O  O1234  1  0.014980  0.625000  0.235020  1.0  -0.6593
  O  O1235  1  0.264980  0.985020  0.125000  1.0  -0.6642
  O  O1236  1  0.764980  0.485020  0.625000  1.0  -0.6464
  O  O1237  1  0.735020  0.485020  0.375000  1.0  -0.6453
  O  O1238  1  0.764980  0.514980  0.875000  1.0  -0.6487
  O  O1239  1  0.235020  0.014980  0.625000  1.0  -0.66
  O  O1240  1  0.014980  0.375000  0.264980  1.0  -0.6589
  O  O1241  1  0.514980  0.125000  0.735020  1.0  -0.6474
  O  O1242  1  0.985020  0.875000  0.235020  1.0  -0.6599
  O  O1243  1  0.875000  0.235020  0.985020  1.0  -0.6637
  O  O1244  1  0.125000  0.735020  0.514980  1.0  -0.651
  O  O1245  1  0.375000  0.264980  0.014980  1.0  -0.6615
  O  O1246  1  0.735020  0.514980  0.125000  1.0  -0.6481
  O  O1247  1  0.235020  0.985020  0.875000  1.0  -0.6577
  O  O1248  1  0.264980  0.014980  0.375000  1.0  -0.6606
  O  O1249  1  0.875000  0.735020  0.014980  1.0  -0.6685
  O  O1250  1  0.375000  0.235020  0.514980  1.0  -0.651
  O  O1251  1  0.625000  0.264980  0.514980  1.0  -0.6513
  O  O1252  1  0.125000  0.235020  0.485020  1.0  -0.6518
  O  O1253  1  0.375000  0.764980  0.985020  1.0  -0.6656
  O  O1254  1  0.014980  0.875000  0.735020  1.0  -0.6647
  O  O1255  1  0.514980  0.375000  0.235020  1.0  -0.6474
  O  O1256  1  0.514980  0.625000  0.264980  1.0  -0.6471
  O  O1257  1  0.485020  0.125000  0.235020  1.0  -0.6472
  O  O1258  1  0.985020  0.375000  0.764980  1.0  -0.6574
  O  O1259  1  0.735020  0.014980  0.875000  1.0  -0.6666
  O  O1260  1  0.235020  0.514980  0.375000  1.0  -0.6481
  O  O1261  1  0.264980  0.514980  0.625000  1.0  -0.6487
  O  O1262  1  0.235020  0.485020  0.125000  1.0  -0.6453
  O  O1263  1  0.764980  0.985020  0.375000  1.0  -0.659
  O  O1264  1  0.985020  0.625000  0.735020  1.0  -0.6591
  O  O1265  1  0.485020  0.875000  0.264980  1.0  -0.6456
  O  O1266  1  0.014980  0.125000  0.764980  1.0  -0.6593
  O  O1267  1  0.125000  0.764980  0.014980  1.0  -0.6635
  O  O1268  1  0.875000  0.264980  0.485020  1.0  -0.6554
  O  O1269  1  0.625000  0.735020  0.985020  1.0  -0.6631
  O  O1270  1  0.264980  0.485020  0.875000  1.0  -0.6464
  O  O1271  1  0.764980  0.014980  0.125000  1.0  -0.6613
  O  O1272  1  0.735020  0.985020  0.625000  1.0  -0.6581
