# generated using pymatgen
data_Zn3H30C54N9O14
_symmetry_space_group_name_H-M   'P 1'
_cell_length_a   38.16820000
_cell_length_b   38.16820000
_cell_length_c   55.09170000
_cell_angle_alpha   90.00000000
_cell_angle_beta   90.00000000
_cell_angle_gamma   90.00000000
_symmetry_Int_Tables_number   1
_chemical_formula_structural   Zn3H30C54N9O14
_chemical_formula_sum   'Zn48 H480 C864 N144 O224'
_cell_volume   80258.22163195
_cell_formula_units_Z   16
loop_
 _symmetry_equiv_pos_site_id
 _symmetry_equiv_pos_as_xyz
  1  'x, y, z'
loop_
 _atom_site_type_symbol
 _atom_site_label
 _atom_site_symmetry_multiplicity
 _atom_site_fract_x
 _atom_site_fract_y
 _atom_site_fract_z
 _atom_site_occupancy
 _atom_site_charge
  Zn  Zn1  1  0.425790  0.628310  0.102130  1.0  1.0528
  Zn  Zn2  1  0.401140  0.670510  0.136180  1.0  1.0646
  Zn  Zn3  1  0.925790  0.128310  0.602130  1.0  1.0528
  Zn  Zn4  1  0.901140  0.170510  0.636180  1.0  1.0646
  Zn  Zn5  1  0.574210  0.371690  0.102130  1.0  1.0532
  Zn  Zn6  1  0.598860  0.329490  0.136180  1.0  1.0654
  Zn  Zn7  1  0.074210  0.871690  0.602130  1.0  1.0532
  Zn  Zn8  1  0.098860  0.829490  0.636180  1.0  1.0654
  Zn  Zn9  1  0.371690  0.425790  0.102130  1.0  1.0519
  Zn  Zn10  1  0.329490  0.401140  0.136180  1.0  1.0664
  Zn  Zn11  1  0.871690  0.925790  0.602130  1.0  1.0519
  Zn  Zn12  1  0.829490  0.901140  0.636180  1.0  1.0664
  Zn  Zn13  1  0.628310  0.574210  0.102130  1.0  1.0547
  Zn  Zn14  1  0.670510  0.598860  0.136180  1.0  1.0647
  Zn  Zn15  1  0.128310  0.074210  0.602130  1.0  1.0547
  Zn  Zn16  1  0.170510  0.098860  0.636180  1.0  1.0647
  Zn  Zn17  1  0.574210  0.371690  0.897870  1.0  1.0516
  Zn  Zn18  1  0.598860  0.329490  0.863820  1.0  1.0646
  Zn  Zn19  1  0.074210  0.871690  0.397870  1.0  1.0516
  Zn  Zn20  1  0.098860  0.829490  0.363820  1.0  1.0646
  Zn  Zn21  1  0.425790  0.628310  0.897870  1.0  1.0529
  Zn  Zn22  1  0.401140  0.670510  0.863820  1.0  1.0663
  Zn  Zn23  1  0.925790  0.128310  0.397870  1.0  1.0529
  Zn  Zn24  1  0.901140  0.170510  0.363820  1.0  1.0663
  Zn  Zn25  1  0.628310  0.574210  0.897870  1.0  1.0532
  Zn  Zn26  1  0.670510  0.598860  0.863820  1.0  1.065
  Zn  Zn27  1  0.128310  0.074210  0.397870  1.0  1.0532
  Zn  Zn28  1  0.170510  0.098860  0.363820  1.0  1.065
  Zn  Zn29  1  0.371690  0.425790  0.897870  1.0  1.0513
  Zn  Zn30  1  0.329490  0.401140  0.863820  1.0  1.0679
  Zn  Zn31  1  0.871690  0.925790  0.397870  1.0  1.0513
  Zn  Zn32  1  0.829490  0.901140  0.363820  1.0  1.0679
  Zn  Zn33  1  0.552230  0.702990  0.000000  1.0  1.0568
  Zn  Zn34  1  0.569300  0.770280  0.000000  1.0  1.0745
  Zn  Zn35  1  0.052230  0.202990  0.500000  1.0  1.0568
  Zn  Zn36  1  0.069300  0.270280  0.500000  1.0  1.0526
  Zn  Zn37  1  0.447770  0.297010  0.000000  1.0  1.056
  Zn  Zn38  1  0.430700  0.229720  0.000000  1.0  1.076
  Zn  Zn39  1  0.947770  0.797010  0.500000  1.0  1.056
  Zn  Zn40  1  0.930700  0.729720  0.500000  1.0  1.0541
  Zn  Zn41  1  0.297010  0.552230  0.000000  1.0  1.0603
  Zn  Zn42  1  0.229720  0.569300  0.000000  1.0  1.0745
  Zn  Zn43  1  0.797010  0.052230  0.500000  1.0  1.0603
  Zn  Zn44  1  0.729720  0.069300  0.500000  1.0  1.051
  Zn  Zn45  1  0.702990  0.447770  0.000000  1.0  1.0555
  Zn  Zn46  1  0.770280  0.430700  0.000000  1.0  1.076
  Zn  Zn47  1  0.202990  0.947770  0.500000  1.0  1.0555
  Zn  Zn48  1  0.270280  0.930700  0.500000  1.0  1.0538
  H  H49  1  0.356500  0.231500  0.058800  1.0  0.1229
  H  H50  1  0.318500  0.295700  0.110000  1.0  0.1217
  H  H51  1  0.357400  0.130000  0.109800  1.0  0.1259
  H  H52  1  0.263700  0.144200  0.139800  1.0  0.1136
  H  H53  1  0.351400  0.071000  0.118100  1.0  0.1128
  H  H54  1  0.264400  0.085500  0.151400  1.0  0.0964
  H  H55  1  0.276200  0.043400  0.174700  1.0  0.1143
  H  H56  1  0.346200  0.018600  0.122600  1.0  0.1084
  H  H57  1  0.362500  0.696400  0.169000  1.0  0.4603
  H  H58  1  0.466900  0.600200  0.071300  1.0  0.4306
  H  H59  1  0.480200  0.704300  0.059100  1.0  0.1136
  H  H60  1  0.490200  0.808000  0.050000  1.0  0.1179
  H  H61  1  0.370300  0.868000  0.124800  1.0  0.0926
  H  H62  1  0.426100  0.770200  0.101900  1.0  0.1231
  H  H63  1  0.312300  0.944800  0.168100  1.0  0.1016
  H  H64  1  0.234300  0.012100  0.245000  1.0  0.0952
  H  H65  1  0.403500  0.826500  0.104700  1.0  0.1144
  H  H66  1  0.392600  0.983900  0.120400  1.0  0.0983
  H  H67  1  0.264300  0.932100  0.188500  1.0  0.1004
  H  H68  1  0.265200  0.028800  0.211200  1.0  0.103
  H  H69  1  0.227500  0.918000  0.219600  1.0  0.1072
  H  H70  1  0.328900  0.909100  0.139600  1.0  0.1033
  H  H71  1  0.430200  0.943500  0.102100  1.0  0.1213
  H  H72  1  0.380300  0.334100  0.057200  1.0  0.1165
  H  H73  1  0.351100  0.187800  0.090800  1.0  0.1176
  H  H74  1  0.200600  0.996200  0.280000  1.0  0.1107
  H  H75  1  0.173900  0.007100  0.316700  1.0  0.1166
  H  H76  1  0.145900  0.906000  0.317300  1.0  0.1212
  H  H77  1  0.115300  0.969300  0.371400  1.0  0.1073
  H  H78  1  0.296900  0.134900  0.106900  1.0  0.0801
  H  H79  1  0.856500  0.731500  0.558800  1.0  0.1229
  H  H80  1  0.818500  0.795700  0.610000  1.0  0.1217
  H  H81  1  0.857400  0.630000  0.609800  1.0  0.1259
  H  H82  1  0.763700  0.644200  0.639800  1.0  0.1136
  H  H83  1  0.851400  0.571000  0.618100  1.0  0.1129
  H  H84  1  0.764400  0.585500  0.651400  1.0  0.097
  H  H85  1  0.776200  0.543400  0.674700  1.0  0.1134
  H  H86  1  0.846200  0.518600  0.622600  1.0  0.1064
  H  H87  1  0.862500  0.196400  0.669000  1.0  0.4603
  H  H88  1  0.966900  0.100200  0.571300  1.0  0.4306
  H  H89  1  0.980200  0.204300  0.559100  1.0  0.1136
  H  H90  1  0.990200  0.308000  0.550000  1.0  0.1179
  H  H91  1  0.870300  0.368000  0.624800  1.0  0.0926
  H  H92  1  0.926100  0.270200  0.601900  1.0  0.1231
  H  H93  1  0.812300  0.444800  0.668100  1.0  0.1016
  H  H94  1  0.734300  0.512100  0.745000  1.0  0.0952
  H  H95  1  0.903500  0.326500  0.604700  1.0  0.1144
  H  H96  1  0.892600  0.483900  0.620400  1.0  0.0981
  H  H97  1  0.764300  0.432100  0.688500  1.0  0.1004
  H  H98  1  0.765200  0.528800  0.711200  1.0  0.103
  H  H99  1  0.727500  0.418000  0.719600  1.0  0.1072
  H  H100  1  0.828900  0.409100  0.639600  1.0  0.103
  H  H101  1  0.930200  0.443500  0.602100  1.0  0.1219
  H  H102  1  0.880300  0.834100  0.557200  1.0  0.1165
  H  H103  1  0.851100  0.687800  0.590800  1.0  0.1176
  H  H104  1  0.700600  0.496200  0.780000  1.0  0.1107
  H  H105  1  0.673900  0.507100  0.816700  1.0  0.1166
  H  H106  1  0.645900  0.406000  0.817300  1.0  0.1212
  H  H107  1  0.615300  0.469300  0.871400  1.0  0.1073
  H  H108  1  0.796900  0.634900  0.606900  1.0  0.0801
  H  H109  1  0.643500  0.768500  0.058800  1.0  0.1229
  H  H110  1  0.681500  0.704300  0.110000  1.0  0.1213
  H  H111  1  0.642600  0.870000  0.109800  1.0  0.125
  H  H112  1  0.736300  0.855800  0.139800  1.0  0.1126
  H  H113  1  0.648600  0.929000  0.118100  1.0  0.1119
  H  H114  1  0.735600  0.914500  0.151400  1.0  0.0972
  H  H115  1  0.723800  0.956600  0.174700  1.0  0.1138
  H  H116  1  0.653800  0.981400  0.122600  1.0  0.1079
  H  H117  1  0.637500  0.303600  0.169000  1.0  0.4583
  H  H118  1  0.533100  0.399800  0.071300  1.0  0.4329
  H  H119  1  0.519800  0.295700  0.059100  1.0  0.1131
  H  H120  1  0.509800  0.192000  0.050000  1.0  0.1175
  H  H121  1  0.629700  0.132000  0.124800  1.0  0.0928
  H  H122  1  0.573900  0.229800  0.101900  1.0  0.1225
  H  H123  1  0.687700  0.055200  0.168100  1.0  0.1017
  H  H124  1  0.765700  0.987900  0.245000  1.0  0.095
  H  H125  1  0.596500  0.173500  0.104700  1.0  0.1138
  H  H126  1  0.607400  0.016100  0.120400  1.0  0.0977
  H  H127  1  0.735700  0.067900  0.188500  1.0  0.1004
  H  H128  1  0.734800  0.971200  0.211200  1.0  0.1022
  H  H129  1  0.772500  0.082000  0.219600  1.0  0.1075
  H  H130  1  0.671100  0.090900  0.139600  1.0  0.1038
  H  H131  1  0.569800  0.056500  0.102100  1.0  0.1212
  H  H132  1  0.619700  0.665900  0.057200  1.0  0.1166
  H  H133  1  0.648900  0.812200  0.090800  1.0  0.118
  H  H134  1  0.799400  0.003800  0.280000  1.0  0.1109
  H  H135  1  0.826100  0.992900  0.316700  1.0  0.1164
  H  H136  1  0.854100  0.094000  0.317300  1.0  0.121
  H  H137  1  0.884700  0.030700  0.371400  1.0  0.1073
  H  H138  1  0.703100  0.865100  0.106900  1.0  0.0807
  H  H139  1  0.143500  0.268500  0.558800  1.0  0.1229
  H  H140  1  0.181500  0.204300  0.610000  1.0  0.1213
  H  H141  1  0.142600  0.370000  0.609800  1.0  0.125
  H  H142  1  0.236300  0.355800  0.639800  1.0  0.1126
  H  H143  1  0.148600  0.429000  0.618100  1.0  0.1119
  H  H144  1  0.235600  0.414500  0.651400  1.0  0.0974
  H  H145  1  0.223800  0.456600  0.674700  1.0  0.1128
  H  H146  1  0.153800  0.481400  0.622600  1.0  0.1061
  H  H147  1  0.137500  0.803600  0.669000  1.0  0.4583
  H  H148  1  0.033100  0.899800  0.571300  1.0  0.4329
  H  H149  1  0.019800  0.795700  0.559100  1.0  0.1131
  H  H150  1  0.009800  0.692000  0.550000  1.0  0.1175
  H  H151  1  0.129700  0.632000  0.624800  1.0  0.0922
  H  H152  1  0.073900  0.729800  0.601900  1.0  0.1225
  H  H153  1  0.187700  0.555200  0.668100  1.0  0.1017
  H  H154  1  0.265700  0.487900  0.745000  1.0  0.095
  H  H155  1  0.096500  0.673500  0.604700  1.0  0.1138
  H  H156  1  0.107400  0.516100  0.620400  1.0  0.098
  H  H157  1  0.235700  0.567900  0.688500  1.0  0.1004
  H  H158  1  0.234800  0.471200  0.711200  1.0  0.1022
  H  H159  1  0.272500  0.582000  0.719600  1.0  0.1078
  H  H160  1  0.171100  0.590900  0.639600  1.0  0.1037
  H  H161  1  0.069800  0.556500  0.602100  1.0  0.1216
  H  H162  1  0.119700  0.165900  0.557200  1.0  0.1166
  H  H163  1  0.148900  0.312200  0.590800  1.0  0.118
  H  H164  1  0.299400  0.503800  0.780000  1.0  0.1109
  H  H165  1  0.326100  0.492900  0.816700  1.0  0.1164
  H  H166  1  0.354100  0.594000  0.817300  1.0  0.121
  H  H167  1  0.384700  0.530700  0.871400  1.0  0.1073
  H  H168  1  0.203100  0.365100  0.606900  1.0  0.0807
  H  H169  1  0.768500  0.356500  0.058800  1.0  0.1238
  H  H170  1  0.704300  0.318500  0.110000  1.0  0.1212
  H  H171  1  0.870000  0.357400  0.109800  1.0  0.1282
  H  H172  1  0.855800  0.263700  0.139800  1.0  0.1125
  H  H173  1  0.929000  0.351400  0.118100  1.0  0.114
  H  H174  1  0.914500  0.264400  0.151400  1.0  0.0977
  H  H175  1  0.956600  0.276200  0.174700  1.0  0.1149
  H  H176  1  0.981400  0.346200  0.122600  1.0  0.1072
  H  H177  1  0.303600  0.362500  0.169000  1.0  0.4622
  H  H178  1  0.399800  0.466900  0.071300  1.0  0.4312
  H  H179  1  0.295700  0.480200  0.059100  1.0  0.112
  H  H180  1  0.192000  0.490200  0.050000  1.0  0.1182
  H  H181  1  0.132000  0.370300  0.124800  1.0  0.0936
  H  H182  1  0.229800  0.426100  0.101900  1.0  0.1233
  H  H183  1  0.055200  0.312300  0.168100  1.0  0.1018
  H  H184  1  0.987900  0.234300  0.245000  1.0  0.0929
  H  H185  1  0.173500  0.403500  0.104700  1.0  0.1138
  H  H186  1  0.016100  0.392600  0.120400  1.0  0.0987
  H  H187  1  0.067900  0.264300  0.188500  1.0  0.1004
  H  H188  1  0.971200  0.265200  0.211200  1.0  0.1009
  H  H189  1  0.082000  0.227500  0.219600  1.0  0.1075
  H  H190  1  0.090900  0.328900  0.139600  1.0  0.1038
  H  H191  1  0.056500  0.430200  0.102100  1.0  0.1212
  H  H192  1  0.665900  0.380300  0.057200  1.0  0.1164
  H  H193  1  0.812200  0.351100  0.090800  1.0  0.1187
  H  H194  1  0.003800  0.200600  0.280000  1.0  0.1113
  H  H195  1  0.992900  0.173900  0.316700  1.0  0.1168
  H  H196  1  0.094000  0.145900  0.317300  1.0  0.1201
  H  H197  1  0.030700  0.115300  0.371400  1.0  0.107
  H  H198  1  0.865100  0.296900  0.106900  1.0  0.0811
  H  H199  1  0.268500  0.856500  0.558800  1.0  0.1238
  H  H200  1  0.204300  0.818500  0.610000  1.0  0.1212
  H  H201  1  0.370000  0.857400  0.609800  1.0  0.1282
  H  H202  1  0.355800  0.763700  0.639800  1.0  0.1125
  H  H203  1  0.429000  0.851400  0.618100  1.0  0.1141
  H  H204  1  0.414500  0.764400  0.651400  1.0  0.0984
  H  H205  1  0.456600  0.776200  0.674700  1.0  0.1139
  H  H206  1  0.481400  0.846200  0.622600  1.0  0.1053
  H  H207  1  0.803600  0.862500  0.669000  1.0  0.4622
  H  H208  1  0.899800  0.966900  0.571300  1.0  0.4312
  H  H209  1  0.795700  0.980200  0.559100  1.0  0.112
  H  H210  1  0.692000  0.990200  0.550000  1.0  0.1182
  H  H211  1  0.632000  0.870300  0.624800  1.0  0.0929
  H  H212  1  0.729800  0.926100  0.601900  1.0  0.1233
  H  H213  1  0.555200  0.812300  0.668100  1.0  0.1018
  H  H214  1  0.487900  0.734300  0.745000  1.0  0.0929
  H  H215  1  0.673500  0.903500  0.604700  1.0  0.1138
  H  H216  1  0.516100  0.892600  0.620400  1.0  0.0983
  H  H217  1  0.567900  0.764300  0.688500  1.0  0.1004
  H  H218  1  0.471200  0.765200  0.711200  1.0  0.1009
  H  H219  1  0.582000  0.727500  0.719600  1.0  0.108
  H  H220  1  0.590900  0.828900  0.639600  1.0  0.1038
  H  H221  1  0.556500  0.930200  0.602100  1.0  0.122
  H  H222  1  0.165900  0.880300  0.557200  1.0  0.1164
  H  H223  1  0.312200  0.851100  0.590800  1.0  0.1187
  H  H224  1  0.503800  0.700600  0.780000  1.0  0.1113
  H  H225  1  0.492900  0.673900  0.816700  1.0  0.1168
  H  H226  1  0.594000  0.645900  0.817300  1.0  0.1201
  H  H227  1  0.530700  0.615300  0.871400  1.0  0.107
  H  H228  1  0.365100  0.796900  0.606900  1.0  0.0811
  H  H229  1  0.231500  0.643500  0.058800  1.0  0.1238
  H  H230  1  0.295700  0.681500  0.110000  1.0  0.1218
  H  H231  1  0.130000  0.642600  0.109800  1.0  0.1275
  H  H232  1  0.144200  0.736300  0.139800  1.0  0.1124
  H  H233  1  0.071000  0.648600  0.118100  1.0  0.1144
  H  H234  1  0.085500  0.735600  0.151400  1.0  0.0973
  H  H235  1  0.043400  0.723800  0.174700  1.0  0.1136
  H  H236  1  0.018600  0.653800  0.122600  1.0  0.1075
  H  H237  1  0.696400  0.637500  0.169000  1.0  0.4568
  H  H238  1  0.600200  0.533100  0.071300  1.0  0.4348
  H  H239  1  0.704300  0.519800  0.059100  1.0  0.1121
  H  H240  1  0.808000  0.509800  0.050000  1.0  0.1181
  H  H241  1  0.868000  0.629700  0.124800  1.0  0.0946
  H  H242  1  0.770200  0.573900  0.101900  1.0  0.123
  H  H243  1  0.944800  0.687700  0.168100  1.0  0.1026
  H  H244  1  0.012100  0.765700  0.245000  1.0  0.0939
  H  H245  1  0.826500  0.596500  0.104700  1.0  0.1145
  H  H246  1  0.983900  0.607400  0.120400  1.0  0.0976
  H  H247  1  0.932100  0.735700  0.188500  1.0  0.1002
  H  H248  1  0.028800  0.734800  0.211200  1.0  0.1007
  H  H249  1  0.918000  0.772500  0.219600  1.0  0.1074
  H  H250  1  0.909100  0.671100  0.139600  1.0  0.1041
  H  H251  1  0.943500  0.569800  0.102100  1.0  0.1209
  H  H252  1  0.334100  0.619700  0.057200  1.0  0.1162
  H  H253  1  0.187800  0.648900  0.090800  1.0  0.1183
  H  H254  1  0.996200  0.799400  0.280000  1.0  0.1111
  H  H255  1  0.007100  0.826100  0.316700  1.0  0.1164
  H  H256  1  0.906000  0.854100  0.317300  1.0  0.12
  H  H257  1  0.969300  0.884700  0.371400  1.0  0.1073
  H  H258  1  0.134900  0.703100  0.106900  1.0  0.0811
  H  H259  1  0.731500  0.143500  0.558800  1.0  0.1238
  H  H260  1  0.795700  0.181500  0.610000  1.0  0.1218
  H  H261  1  0.630000  0.142600  0.609800  1.0  0.1275
  H  H262  1  0.644200  0.236300  0.639800  1.0  0.1124
  H  H263  1  0.571000  0.148600  0.618100  1.0  0.1145
  H  H264  1  0.585500  0.235600  0.651400  1.0  0.0979
  H  H265  1  0.543400  0.223800  0.674700  1.0  0.1129
  H  H266  1  0.518600  0.153800  0.622600  1.0  0.1058
  H  H267  1  0.196400  0.137500  0.669000  1.0  0.4568
  H  H268  1  0.100200  0.033100  0.571300  1.0  0.4348
  H  H269  1  0.204300  0.019800  0.559100  1.0  0.1121
  H  H270  1  0.308000  0.009800  0.550000  1.0  0.1181
  H  H271  1  0.368000  0.129700  0.624800  1.0  0.0941
  H  H272  1  0.270200  0.073900  0.601900  1.0  0.123
  H  H273  1  0.444800  0.187700  0.668100  1.0  0.1025
  H  H274  1  0.512100  0.265700  0.745000  1.0  0.0939
  H  H275  1  0.326500  0.096500  0.604700  1.0  0.1145
  H  H276  1  0.483900  0.107400  0.620400  1.0  0.0975
  H  H277  1  0.432100  0.235700  0.688500  1.0  0.1002
  H  H278  1  0.528800  0.234800  0.711200  1.0  0.1007
  H  H279  1  0.418000  0.272500  0.719600  1.0  0.1077
  H  H280  1  0.409100  0.171100  0.639600  1.0  0.104
  H  H281  1  0.443500  0.069800  0.602100  1.0  0.1214
  H  H282  1  0.834100  0.119700  0.557200  1.0  0.1162
  H  H283  1  0.687800  0.148900  0.590800  1.0  0.1183
  H  H284  1  0.496200  0.299400  0.780000  1.0  0.1111
  H  H285  1  0.507100  0.326100  0.816700  1.0  0.1164
  H  H286  1  0.406000  0.354100  0.817300  1.0  0.12
  H  H287  1  0.469300  0.384700  0.871400  1.0  0.1073
  H  H288  1  0.634900  0.203100  0.606900  1.0  0.0811
  H  H289  1  0.643500  0.768500  0.941200  1.0  0.1228
  H  H290  1  0.681500  0.704300  0.890000  1.0  0.1214
  H  H291  1  0.642600  0.870000  0.890200  1.0  0.1257
  H  H292  1  0.736300  0.855800  0.860200  1.0  0.1125
  H  H293  1  0.648600  0.929000  0.881900  1.0  0.1111
  H  H294  1  0.735600  0.914500  0.848600  1.0  0.0964
  H  H295  1  0.723800  0.956600  0.825300  1.0  0.1138
  H  H296  1  0.653800  0.981400  0.877400  1.0  0.108
  H  H297  1  0.637500  0.303600  0.831000  1.0  0.4568
  H  H298  1  0.533100  0.399800  0.928700  1.0  0.433
  H  H299  1  0.519800  0.295700  0.940900  1.0  0.1134
  H  H300  1  0.509800  0.192000  0.950000  1.0  0.1178
  H  H301  1  0.629700  0.132000  0.875200  1.0  0.0929
  H  H302  1  0.573900  0.229800  0.898100  1.0  0.1221
  H  H303  1  0.687700  0.055200  0.831900  1.0  0.1016
  H  H304  1  0.765700  0.987900  0.755000  1.0  0.0955
  H  H305  1  0.596500  0.173500  0.895300  1.0  0.1135
  H  H306  1  0.607400  0.016100  0.879600  1.0  0.0978
  H  H307  1  0.735700  0.067900  0.811500  1.0  0.1
  H  H308  1  0.734800  0.971200  0.788800  1.0  0.103
  H  H309  1  0.772500  0.082000  0.780400  1.0  0.1076
  H  H310  1  0.671100  0.090900  0.860400  1.0  0.1041
  H  H311  1  0.569800  0.056500  0.897900  1.0  0.1214
  H  H312  1  0.619700  0.665900  0.942800  1.0  0.1169
  H  H313  1  0.648900  0.812200  0.909200  1.0  0.1186
  H  H314  1  0.799400  0.003800  0.720000  1.0  0.1105
  H  H315  1  0.826100  0.992900  0.683300  1.0  0.1165
  H  H316  1  0.854100  0.094000  0.682700  1.0  0.1211
  H  H317  1  0.884700  0.030700  0.628600  1.0  0.1076
  H  H318  1  0.703100  0.865100  0.893100  1.0  0.0789
  H  H319  1  0.143500  0.268500  0.441200  1.0  0.1228
  H  H320  1  0.181500  0.204300  0.390000  1.0  0.1214
  H  H321  1  0.142600  0.370000  0.390200  1.0  0.1257
  H  H322  1  0.236300  0.355800  0.360200  1.0  0.1125
  H  H323  1  0.148600  0.429000  0.381900  1.0  0.1121
  H  H324  1  0.235600  0.414500  0.348600  1.0  0.0969
  H  H325  1  0.223800  0.456600  0.325300  1.0  0.1138
  H  H326  1  0.153800  0.481400  0.377400  1.0  0.1058
  H  H327  1  0.137500  0.803600  0.331000  1.0  0.4568
  H  H328  1  0.033100  0.899800  0.428700  1.0  0.433
  H  H329  1  0.019800  0.795700  0.440900  1.0  0.1134
  H  H330  1  0.009800  0.692000  0.450000  1.0  0.1178
  H  H331  1  0.129700  0.632000  0.375200  1.0  0.0923
  H  H332  1  0.073900  0.729800  0.398100  1.0  0.1221
  H  H333  1  0.187700  0.555200  0.331900  1.0  0.1016
  H  H334  1  0.265700  0.487900  0.255000  1.0  0.0955
  H  H335  1  0.096500  0.673500  0.395300  1.0  0.1135
  H  H336  1  0.107400  0.516100  0.379600  1.0  0.0981
  H  H337  1  0.235700  0.567900  0.311500  1.0  0.1
  H  H338  1  0.234800  0.471200  0.288800  1.0  0.103
  H  H339  1  0.272500  0.582000  0.280400  1.0  0.1079
  H  H340  1  0.171100  0.590900  0.360400  1.0  0.104
  H  H341  1  0.069800  0.556500  0.397900  1.0  0.1218
  H  H342  1  0.119700  0.165900  0.442800  1.0  0.1169
  H  H343  1  0.148900  0.312200  0.409200  1.0  0.1186
  H  H344  1  0.299400  0.503800  0.220000  1.0  0.1105
  H  H345  1  0.326100  0.492900  0.183300  1.0  0.1165
  H  H346  1  0.354100  0.594000  0.182700  1.0  0.1211
  H  H347  1  0.384700  0.530700  0.128600  1.0  0.1076
  H  H348  1  0.203100  0.365100  0.393100  1.0  0.0789
  H  H349  1  0.356500  0.231500  0.941200  1.0  0.123
  H  H350  1  0.318500  0.295700  0.890000  1.0  0.1214
  H  H351  1  0.357400  0.130000  0.890200  1.0  0.1261
  H  H352  1  0.263700  0.144200  0.860200  1.0  0.1135
  H  H353  1  0.351400  0.071000  0.881900  1.0  0.1124
  H  H354  1  0.264400  0.085500  0.848600  1.0  0.0958
  H  H355  1  0.276200  0.043400  0.825300  1.0  0.1143
  H  H356  1  0.346200  0.018600  0.877400  1.0  0.1079
  H  H357  1  0.362500  0.696400  0.831000  1.0  0.4585
  H  H358  1  0.466900  0.600200  0.928700  1.0  0.4304
  H  H359  1  0.480200  0.704300  0.940900  1.0  0.1135
  H  H360  1  0.490200  0.808000  0.950000  1.0  0.1183
  H  H361  1  0.370300  0.868000  0.875200  1.0  0.0924
  H  H362  1  0.426100  0.770200  0.898100  1.0  0.1227
  H  H363  1  0.312300  0.944800  0.831900  1.0  0.1013
  H  H364  1  0.234300  0.012100  0.755000  1.0  0.0955
  H  H365  1  0.403500  0.826500  0.895300  1.0  0.1138
  H  H366  1  0.392600  0.983900  0.879600  1.0  0.0983
  H  H367  1  0.264300  0.932100  0.811500  1.0  0.1004
  H  H368  1  0.265200  0.028800  0.788800  1.0  0.1032
  H  H369  1  0.227500  0.918000  0.780400  1.0  0.1071
  H  H370  1  0.328900  0.909100  0.860400  1.0  0.1032
  H  H371  1  0.430200  0.943500  0.897900  1.0  0.1212
  H  H372  1  0.380300  0.334100  0.942800  1.0  0.1168
  H  H373  1  0.351100  0.187800  0.909200  1.0  0.1181
  H  H374  1  0.200600  0.996200  0.720000  1.0  0.1106
  H  H375  1  0.173900  0.007100  0.683300  1.0  0.1166
  H  H376  1  0.145900  0.906000  0.682700  1.0  0.1212
  H  H377  1  0.115300  0.969300  0.628600  1.0  0.1078
  H  H378  1  0.296900  0.134900  0.893100  1.0  0.0793
  H  H379  1  0.856500  0.731500  0.441200  1.0  0.123
  H  H380  1  0.818500  0.795700  0.390000  1.0  0.1214
  H  H381  1  0.857400  0.630000  0.390200  1.0  0.1261
  H  H382  1  0.763700  0.644200  0.360200  1.0  0.1135
  H  H383  1  0.851400  0.571000  0.381900  1.0  0.1133
  H  H384  1  0.764400  0.585500  0.348600  1.0  0.0965
  H  H385  1  0.776200  0.543400  0.325300  1.0  0.1143
  H  H386  1  0.846200  0.518600  0.377400  1.0  0.1059
  H  H387  1  0.862500  0.196400  0.331000  1.0  0.4585
  H  H388  1  0.966900  0.100200  0.428700  1.0  0.4304
  H  H389  1  0.980200  0.204300  0.440900  1.0  0.1135
  H  H390  1  0.990200  0.308000  0.450000  1.0  0.1183
  H  H391  1  0.870300  0.368000  0.375200  1.0  0.0922
  H  H392  1  0.926100  0.270200  0.398100  1.0  0.1227
  H  H393  1  0.812300  0.444800  0.331900  1.0  0.1013
  H  H394  1  0.734300  0.512100  0.255000  1.0  0.0955
  H  H395  1  0.903500  0.326500  0.395300  1.0  0.1138
  H  H396  1  0.892600  0.483900  0.379600  1.0  0.0982
  H  H397  1  0.764300  0.432100  0.311500  1.0  0.1004
  H  H398  1  0.765200  0.528800  0.288800  1.0  0.1032
  H  H399  1  0.727500  0.418000  0.280400  1.0  0.1071
  H  H400  1  0.828900  0.409100  0.360400  1.0  0.103
  H  H401  1  0.930200  0.443500  0.397900  1.0  0.1218
  H  H402  1  0.880300  0.834100  0.442800  1.0  0.1168
  H  H403  1  0.851100  0.687800  0.409200  1.0  0.1181
  H  H404  1  0.700600  0.496200  0.220000  1.0  0.1106
  H  H405  1  0.673900  0.507100  0.183300  1.0  0.1166
  H  H406  1  0.645900  0.406000  0.182700  1.0  0.1212
  H  H407  1  0.615300  0.469300  0.128600  1.0  0.1078
  H  H408  1  0.796900  0.634900  0.393100  1.0  0.0793
  H  H409  1  0.231500  0.643500  0.941200  1.0  0.1237
  H  H410  1  0.295700  0.681500  0.890000  1.0  0.1213
  H  H411  1  0.130000  0.642600  0.890200  1.0  0.1279
  H  H412  1  0.144200  0.736300  0.860200  1.0  0.1127
  H  H413  1  0.071000  0.648600  0.881900  1.0  0.1135
  H  H414  1  0.085500  0.735600  0.848600  1.0  0.0973
  H  H415  1  0.043400  0.723800  0.825300  1.0  0.1138
  H  H416  1  0.018600  0.653800  0.877400  1.0  0.1074
  H  H417  1  0.696400  0.637500  0.831000  1.0  0.4549
  H  H418  1  0.600200  0.533100  0.928700  1.0  0.4351
  H  H419  1  0.704300  0.519800  0.940900  1.0  0.112
  H  H420  1  0.808000  0.509800  0.950000  1.0  0.1185
  H  H421  1  0.868000  0.629700  0.875200  1.0  0.0953
  H  H422  1  0.770200  0.573900  0.898100  1.0  0.1225
  H  H423  1  0.944800  0.687700  0.831900  1.0  0.1028
  H  H424  1  0.012100  0.765700  0.755000  1.0  0.0943
  H  H425  1  0.826500  0.596500  0.895300  1.0  0.1144
  H  H426  1  0.983900  0.607400  0.879600  1.0  0.0973
  H  H427  1  0.932100  0.735700  0.811500  1.0  0.1002
  H  H428  1  0.028800  0.734800  0.788800  1.0  0.1004
  H  H429  1  0.918000  0.772500  0.780400  1.0  0.1074
  H  H430  1  0.909100  0.671100  0.860400  1.0  0.1042
  H  H431  1  0.943500  0.569800  0.897900  1.0  0.1209
  H  H432  1  0.334100  0.619700  0.942800  1.0  0.1165
  H  H433  1  0.187800  0.648900  0.909200  1.0  0.119
  H  H434  1  0.996200  0.799400  0.720000  1.0  0.1108
  H  H435  1  0.007100  0.826100  0.683300  1.0  0.1167
  H  H436  1  0.906000  0.854100  0.682700  1.0  0.12
  H  H437  1  0.969300  0.884700  0.628600  1.0  0.1075
  H  H438  1  0.134900  0.703100  0.893100  1.0  0.0793
  H  H439  1  0.731500  0.143500  0.441200  1.0  0.1237
  H  H440  1  0.795700  0.181500  0.390000  1.0  0.1213
  H  H441  1  0.630000  0.142600  0.390200  1.0  0.1279
  H  H442  1  0.644200  0.236300  0.360200  1.0  0.1127
  H  H443  1  0.571000  0.148600  0.381900  1.0  0.1146
  H  H444  1  0.585500  0.235600  0.348600  1.0  0.0981
  H  H445  1  0.543400  0.223800  0.325300  1.0  0.1138
  H  H446  1  0.518600  0.153800  0.377400  1.0  0.1055
  H  H447  1  0.196400  0.137500  0.331000  1.0  0.4549
  H  H448  1  0.100200  0.033100  0.428700  1.0  0.4351
  H  H449  1  0.204300  0.019800  0.440900  1.0  0.112
  H  H450  1  0.308000  0.009800  0.450000  1.0  0.1185
  H  H451  1  0.368000  0.129700  0.375200  1.0  0.0945
  H  H452  1  0.270200  0.073900  0.398100  1.0  0.1225
  H  H453  1  0.444800  0.187700  0.331900  1.0  0.1028
  H  H454  1  0.512100  0.265700  0.255000  1.0  0.0943
  H  H455  1  0.326500  0.096500  0.395300  1.0  0.1144
  H  H456  1  0.483900  0.107400  0.379600  1.0  0.0975
  H  H457  1  0.432100  0.235700  0.311500  1.0  0.1002
  H  H458  1  0.528800  0.234800  0.288800  1.0  0.1004
  H  H459  1  0.418000  0.272500  0.280400  1.0  0.1078
  H  H460  1  0.409100  0.171100  0.360400  1.0  0.1042
  H  H461  1  0.443500  0.069800  0.397900  1.0  0.1214
  H  H462  1  0.834100  0.119700  0.442800  1.0  0.1165
  H  H463  1  0.687800  0.148900  0.409200  1.0  0.119
  H  H464  1  0.496200  0.299400  0.220000  1.0  0.1108
  H  H465  1  0.507100  0.326100  0.183300  1.0  0.1167
  H  H466  1  0.406000  0.354100  0.182700  1.0  0.12
  H  H467  1  0.469300  0.384700  0.128600  1.0  0.1075
  H  H468  1  0.634900  0.203100  0.393100  1.0  0.0793
  H  H469  1  0.768500  0.356500  0.941200  1.0  0.1238
  H  H470  1  0.704300  0.318500  0.890000  1.0  0.1211
  H  H471  1  0.870000  0.357400  0.890200  1.0  0.128
  H  H472  1  0.855800  0.263700  0.860200  1.0  0.1123
  H  H473  1  0.929000  0.351400  0.881900  1.0  0.1139
  H  H474  1  0.914500  0.264400  0.848600  1.0  0.097
  H  H475  1  0.956600  0.276200  0.825300  1.0  0.1146
  H  H476  1  0.981400  0.346200  0.877400  1.0  0.1071
  H  H477  1  0.303600  0.362500  0.831000  1.0  0.4608
  H  H478  1  0.399800  0.466900  0.928700  1.0  0.4314
  H  H479  1  0.295700  0.480200  0.940900  1.0  0.112
  H  H480  1  0.192000  0.490200  0.950000  1.0  0.1183
  H  H481  1  0.132000  0.370300  0.875200  1.0  0.0935
  H  H482  1  0.229800  0.426100  0.898100  1.0  0.1228
  H  H483  1  0.055200  0.312300  0.831900  1.0  0.1018
  H  H484  1  0.987900  0.234300  0.755000  1.0  0.0938
  H  H485  1  0.173500  0.403500  0.895300  1.0  0.1132
  H  H486  1  0.016100  0.392600  0.879600  1.0  0.0986
  H  H487  1  0.067900  0.264300  0.811500  1.0  0.1001
  H  H488  1  0.971200  0.265200  0.788800  1.0  0.1013
  H  H489  1  0.082000  0.227500  0.780400  1.0  0.1079
  H  H490  1  0.090900  0.328900  0.860400  1.0  0.1039
  H  H491  1  0.056500  0.430200  0.897900  1.0  0.1212
  H  H492  1  0.665900  0.380300  0.942800  1.0  0.1166
  H  H493  1  0.812200  0.351100  0.909200  1.0  0.1191
  H  H494  1  0.003800  0.200600  0.720000  1.0  0.1113
  H  H495  1  0.992900  0.173900  0.683300  1.0  0.1169
  H  H496  1  0.094000  0.145900  0.682700  1.0  0.1203
  H  H497  1  0.030700  0.115300  0.628600  1.0  0.1075
  H  H498  1  0.865100  0.296900  0.893100  1.0  0.0803
  H  H499  1  0.268500  0.856500  0.441200  1.0  0.1238
  H  H500  1  0.204300  0.818500  0.390000  1.0  0.1211
  H  H501  1  0.370000  0.857400  0.390200  1.0  0.128
  H  H502  1  0.355800  0.763700  0.360200  1.0  0.1123
  H  H503  1  0.429000  0.851400  0.381900  1.0  0.1145
  H  H504  1  0.414500  0.764400  0.348600  1.0  0.0978
  H  H505  1  0.456600  0.776200  0.325300  1.0  0.1146
  H  H506  1  0.481400  0.846200  0.377400  1.0  0.105
  H  H507  1  0.803600  0.862500  0.331000  1.0  0.4608
  H  H508  1  0.899800  0.966900  0.428700  1.0  0.4314
  H  H509  1  0.795700  0.980200  0.440900  1.0  0.112
  H  H510  1  0.692000  0.990200  0.450000  1.0  0.1183
  H  H511  1  0.632000  0.870300  0.375200  1.0  0.0929
  H  H512  1  0.729800  0.926100  0.398100  1.0  0.1228
  H  H513  1  0.555200  0.812300  0.331900  1.0  0.1018
  H  H514  1  0.487900  0.734300  0.255000  1.0  0.0938
  H  H515  1  0.673500  0.903500  0.395300  1.0  0.1132
  H  H516  1  0.516100  0.892600  0.379600  1.0  0.0984
  H  H517  1  0.567900  0.764300  0.311500  1.0  0.1001
  H  H518  1  0.471200  0.765200  0.288800  1.0  0.1013
  H  H519  1  0.582000  0.727500  0.280400  1.0  0.1083
  H  H520  1  0.590900  0.828900  0.360400  1.0  0.1039
  H  H521  1  0.556500  0.930200  0.397900  1.0  0.122
  H  H522  1  0.165900  0.880300  0.442800  1.0  0.1166
  H  H523  1  0.312200  0.851100  0.409200  1.0  0.1191
  H  H524  1  0.503800  0.700600  0.220000  1.0  0.1113
  H  H525  1  0.492900  0.673900  0.183300  1.0  0.1169
  H  H526  1  0.594000  0.645900  0.182700  1.0  0.1203
  H  H527  1  0.530700  0.615300  0.128600  1.0  0.1075
  H  H528  1  0.365100  0.796900  0.393100  1.0  0.0803
  C  C529  1  0.355350  0.253720  0.065780  1.0  -0.101
  C  C530  1  0.332550  0.292300  0.096380  1.0  -0.0484
  C  C531  1  0.308490  0.142930  0.121770  1.0  -0.0661
  C  C532  1  0.337190  0.121370  0.117090  1.0  -0.1325
  C  C533  1  0.282300  0.129970  0.135260  1.0  -0.0889
  C  C534  1  0.334330  0.086380  0.123790  1.0  -0.1667
  C  C535  1  0.283200  0.094320  0.142610  1.0  -0.1988
  C  C536  1  0.309170  0.073390  0.137630  1.0  0.0697
  C  C537  1  0.309610  0.036570  0.146300  1.0  -0.0013
  C  C538  1  0.289820  0.026880  0.166610  1.0  -0.1328
  C  C539  1  0.331980  0.011840  0.135500  1.0  -0.1484
  C  C540  1  0.474530  0.727030  0.063770  1.0  0.0345
  C  C541  1  0.436890  0.701370  0.096400  1.0  0.688
  C  C542  1  0.489430  0.755230  0.051820  1.0  -0.154
  C  C543  1  0.516610  0.749120  0.032030  1.0  0.6888
  C  C544  1  0.480530  0.789020  0.058190  1.0  -0.0527
  C  C545  1  0.451240  0.732630  0.082640  1.0  -0.1452
  C  C546  1  0.373760  0.891750  0.121820  1.0  -0.1352
  C  C547  1  0.230310  0.963960  0.236930  1.0  0.2076
  C  C548  1  0.441960  0.766370  0.089340  1.0  -0.0946
  C  C549  1  0.456800  0.794200  0.077000  1.0  0.123
  C  C550  1  0.269110  0.982160  0.196090  1.0  0.1216
  C  C551  1  0.333140  0.977050  0.143800  1.0  0.0352
  C  C552  1  0.312230  0.967950  0.162810  1.0  -0.119
  C  C553  1  0.240070  0.995200  0.233510  1.0  -0.0926
  C  C554  1  0.420390  0.840220  0.097070  1.0  -0.0782
  C  C555  1  0.290790  0.992020  0.174610  1.0  0.0439
  C  C556  1  0.399050  0.901090  0.108870  1.0  -0.0629
  C  C557  1  0.386500  0.960280  0.120640  1.0  -0.1121
  C  C558  1  0.356570  0.951120  0.131900  1.0  0.1127
  C  C559  1  0.257900  0.949360  0.199520  1.0  -0.1589
  C  C560  1  0.422880  0.875410  0.097790  1.0  0.1026
  C  C561  1  0.259170  0.005340  0.213120  1.0  -0.1539
  C  C562  1  0.237100  0.940390  0.218790  1.0  -0.0695
  C  C563  1  0.349520  0.916960  0.132420  1.0  -0.1535
  C  C564  1  0.409300  0.936250  0.109170  1.0  -0.1198
  C  C565  1  0.372590  0.281980  0.055130  1.0  -0.1447
  C  C566  1  0.369360  0.315180  0.064650  1.0  0.0325
  C  C567  1  0.349560  0.320040  0.085610  1.0  -0.1344
  C  C568  1  0.396360  0.275580  0.033450  1.0  0.7043
  C  C569  1  0.336750  0.259060  0.086490  1.0  0.1647
  C  C570  1  0.331560  0.196740  0.098740  1.0  -0.0886
  C  C571  1  0.308090  0.178740  0.113130  1.0  0.0378
  C  C572  1  0.197340  0.972340  0.277270  1.0  -0.1206
  C  C573  1  0.209910  0.953920  0.258730  1.0  0.1018
  C  C574  1  0.162050  0.988730  0.324190  1.0  -0.081
  C  C575  1  0.145130  0.928020  0.324510  1.0  -0.0401
  C  C576  1  0.161550  0.956470  0.313810  1.0  -0.0153
  C  C577  1  0.127220  0.965890  0.356880  1.0  0.027
  C  C578  1  0.127540  0.933360  0.346310  1.0  -0.1376
  C  C579  1  0.144740  0.994160  0.345990  1.0  -0.1558
  C  C580  1  0.347990  0.355930  0.097920  1.0  0.6746
  C  C581  1  0.146440  0.028810  0.358770  1.0  0.7025
  C  C582  1  0.111360  0.902160  0.358790  1.0  0.7033
  C  C583  1  0.855350  0.753720  0.565780  1.0  -0.101
  C  C584  1  0.832550  0.792300  0.596380  1.0  -0.0484
  C  C585  1  0.808490  0.642930  0.621770  1.0  -0.0661
  C  C586  1  0.837190  0.621370  0.617090  1.0  -0.1325
  C  C587  1  0.782300  0.629970  0.635260  1.0  -0.0889
  C  C588  1  0.834330  0.586380  0.623790  1.0  -0.1667
  C  C589  1  0.783200  0.594320  0.642610  1.0  -0.1988
  C  C590  1  0.809170  0.573390  0.637630  1.0  0.0697
  C  C591  1  0.809610  0.536570  0.646300  1.0  -0.0304
  C  C592  1  0.789820  0.526880  0.666667  1.0  -0.1346
  C  C593  1  0.831980  0.511840  0.635500  1.0  -0.1465
  C  C594  1  0.974530  0.227030  0.563770  1.0  0.0345
  C  C595  1  0.936890  0.201370  0.596400  1.0  0.688
  C  C596  1  0.989430  0.255230  0.551820  1.0  -0.154
  C  C597  1  0.016610  0.249120  0.532030  1.0  0.6888
  C  C598  1  0.980530  0.289020  0.558190  1.0  -0.0527
  C  C599  1  0.951240  0.232630  0.582640  1.0  -0.1452
  C  C600  1  0.873760  0.391750  0.621820  1.0  -0.1337
  C  C601  1  0.730310  0.463960  0.736930  1.0  0.2162
  C  C602  1  0.941960  0.266370  0.589340  1.0  -0.0946
  C  C603  1  0.956800  0.294200  0.577000  1.0  0.123
  C  C604  1  0.769110  0.482160  0.696090  1.0  0.1209
  C  C605  1  0.833140  0.477050  0.643800  1.0  0.0342
  C  C606  1  0.812230  0.467950  0.662810  1.0  -0.1137
  C  C607  1  0.740070  0.495200  0.733510  1.0  -0.0903
  C  C608  1  0.920390  0.340220  0.597070  1.0  -0.0782
  C  C609  1  0.790790  0.492020  0.674610  1.0  0.044
  C  C610  1  0.899050  0.401090  0.608870  1.0  -0.0627
  C  C611  1  0.886500  0.460280  0.620640  1.0  -0.1121
  C  C612  1  0.856570  0.451120  0.631900  1.0  0.1127
  C  C613  1  0.757900  0.449360  0.699520  1.0  -0.1589
  C  C614  1  0.922880  0.375410  0.597790  1.0  0.1026
  C  C615  1  0.759170  0.505340  0.713120  1.0  -0.1538
  C  C616  1  0.737100  0.440390  0.718790  1.0  -0.0695
  C  C617  1  0.849520  0.416960  0.632420  1.0  -0.1518
  C  C618  1  0.909300  0.436250  0.609170  1.0  -0.125
  C  C619  1  0.872590  0.781980  0.555130  1.0  -0.1447
  C  C620  1  0.869360  0.815180  0.564650  1.0  0.0325
  C  C621  1  0.849560  0.820040  0.585610  1.0  -0.1344
  C  C622  1  0.896360  0.775580  0.533450  1.0  0.7043
  C  C623  1  0.836750  0.759060  0.586490  1.0  0.1647
  C  C624  1  0.831560  0.696740  0.598740  1.0  -0.0886
  C  C625  1  0.808090  0.678740  0.613130  1.0  0.0378
  C  C626  1  0.697340  0.472340  0.777270  1.0  -0.1206
  C  C627  1  0.709910  0.453920  0.758730  1.0  0.1082
  C  C628  1  0.662050  0.488730  0.824190  1.0  -0.081
  C  C629  1  0.645130  0.428020  0.824510  1.0  -0.0401
  C  C630  1  0.661550  0.456470  0.813810  1.0  -0.0153
  C  C631  1  0.627220  0.465890  0.856880  1.0  0.027
  C  C632  1  0.627540  0.433360  0.846310  1.0  -0.1376
  C  C633  1  0.644740  0.494160  0.845990  1.0  -0.1558
  C  C634  1  0.847990  0.855930  0.597920  1.0  0.6746
  C  C635  1  0.646440  0.528810  0.858770  1.0  0.7025
  C  C636  1  0.611360  0.402160  0.858790  1.0  0.7033
  C  C637  1  0.644650  0.746280  0.065780  1.0  -0.0999
  C  C638  1  0.667450  0.707700  0.096380  1.0  -0.0483
  C  C639  1  0.691510  0.857070  0.121770  1.0  -0.069
  C  C640  1  0.662810  0.878630  0.117090  1.0  -0.1329
  C  C641  1  0.717700  0.870030  0.135260  1.0  -0.0888
  C  C642  1  0.665670  0.913620  0.123790  1.0  -0.1672
  C  C643  1  0.716800  0.905680  0.142610  1.0  -0.1973
  C  C644  1  0.690830  0.926610  0.137630  1.0  0.0701
  C  C645  1  0.690390  0.963430  0.146300  1.0  -0.0011
  C  C646  1  0.710180  0.973120  0.166610  1.0  -0.132
  C  C647  1  0.668020  0.988160  0.135500  1.0  -0.1492
  C  C648  1  0.525470  0.272970  0.063770  1.0  0.0329
  C  C649  1  0.563110  0.298630  0.096400  1.0  0.6879
  C  C650  1  0.510570  0.244770  0.051820  1.0  -0.1546
  C  C651  1  0.483390  0.250880  0.032030  1.0  0.69
  C  C652  1  0.519470  0.210980  0.058190  1.0  -0.0528
  C  C653  1  0.548760  0.267370  0.082640  1.0  -0.1448
  C  C654  1  0.626240  0.108250  0.121820  1.0  -0.1344
  C  C655  1  0.769690  0.036040  0.236930  1.0  0.2082
  C  C656  1  0.558040  0.233630  0.089340  1.0  -0.093
  C  C657  1  0.543200  0.205800  0.077000  1.0  0.1227
  C  C658  1  0.730890  0.017840  0.196090  1.0  0.1213
  C  C659  1  0.666860  0.022950  0.143800  1.0  0.0352
  C  C660  1  0.687770  0.032050  0.162810  1.0  -0.1187
  C  C661  1  0.759930  0.004800  0.233510  1.0  -0.091
  C  C662  1  0.579610  0.159780  0.097070  1.0  -0.0783
  C  C663  1  0.709210  0.007980  0.174610  1.0  0.0445
  C  C664  1  0.600950  0.098910  0.108870  1.0  -0.0654
  C  C665  1  0.613500  0.039720  0.120640  1.0  -0.1133
  C  C666  1  0.643430  0.048880  0.131900  1.0  0.113
  C  C667  1  0.742100  0.050640  0.199520  1.0  -0.1603
  C  C668  1  0.577120  0.124590  0.097790  1.0  0.1033
  C  C669  1  0.740830  0.994660  0.213120  1.0  -0.154
  C  C670  1  0.762900  0.059610  0.218790  1.0  -0.0686
  C  C671  1  0.650480  0.083040  0.132420  1.0  -0.1524
  C  C672  1  0.590700  0.063750  0.109170  1.0  -0.1216
  C  C673  1  0.627410  0.718020  0.055130  1.0  -0.1451
  C  C674  1  0.630640  0.684820  0.064650  1.0  0.0327
  C  C675  1  0.650440  0.679960  0.085610  1.0  -0.1338
  C  C676  1  0.603640  0.724420  0.033450  1.0  0.7051
  C  C677  1  0.663250  0.740940  0.086490  1.0  0.1644
  C  C678  1  0.668440  0.803260  0.098740  1.0  -0.0864
  C  C679  1  0.691910  0.821260  0.113130  1.0  0.0371
  C  C680  1  0.802660  0.027660  0.277270  1.0  -0.1202
  C  C681  1  0.790090  0.046080  0.258730  1.0  0.1008
  C  C682  1  0.837950  0.011270  0.324190  1.0  -0.0816
  C  C683  1  0.854870  0.071980  0.324510  1.0  -0.0401
  C  C684  1  0.838450  0.043530  0.313810  1.0  -0.015
  C  C685  1  0.872780  0.034110  0.356880  1.0  0.0279
  C  C686  1  0.872460  0.066640  0.346310  1.0  -0.1374
  C  C687  1  0.855260  0.005840  0.345990  1.0  -0.1563
  C  C688  1  0.652010  0.644070  0.097920  1.0  0.6748
  C  C689  1  0.853560  0.971190  0.358770  1.0  0.702
  C  C690  1  0.888640  0.097840  0.358790  1.0  0.7046
  C  C691  1  0.144650  0.246280  0.565780  1.0  -0.0999
  C  C692  1  0.167450  0.207700  0.596380  1.0  -0.0483
  C  C693  1  0.191510  0.357070  0.621770  1.0  -0.0689
  C  C694  1  0.162810  0.378630  0.617090  1.0  -0.1329
  C  C695  1  0.217700  0.370030  0.635260  1.0  -0.0888
  C  C696  1  0.165670  0.413620  0.623790  1.0  -0.1672
  C  C697  1  0.216800  0.405680  0.642610  1.0  -0.1974
  C  C698  1  0.190830  0.426610  0.637630  1.0  0.0701
  C  C699  1  0.190390  0.463430  0.646300  1.0  -0.0302
  C  C700  1  0.210180  0.473120  0.666667  1.0  -0.1334
  C  C701  1  0.168020  0.488160  0.635500  1.0  -0.1471
  C  C702  1  0.025470  0.772970  0.563770  1.0  0.0329
  C  C703  1  0.063110  0.798630  0.596400  1.0  0.6879
  C  C704  1  0.010570  0.744770  0.551820  1.0  -0.1546
  C  C705  1  0.983390  0.750880  0.532030  1.0  0.69
  C  C706  1  0.019470  0.710980  0.558190  1.0  -0.0528
  C  C707  1  0.048760  0.767370  0.582640  1.0  -0.1448
  C  C708  1  0.126240  0.608250  0.621820  1.0  -0.1337
  C  C709  1  0.269690  0.536040  0.736930  1.0  0.2165
  C  C710  1  0.058040  0.733630  0.589340  1.0  -0.093
  C  C711  1  0.043200  0.705800  0.577000  1.0  0.1227
  C  C712  1  0.230890  0.517840  0.696090  1.0  0.1206
  C  C713  1  0.166860  0.522950  0.643800  1.0  0.0343
  C  C714  1  0.187770  0.532050  0.662810  1.0  -0.1133
  C  C715  1  0.259930  0.504800  0.733510  1.0  -0.0888
  C  C716  1  0.079610  0.659780  0.597070  1.0  -0.0783
  C  C717  1  0.209210  0.507980  0.674610  1.0  0.0446
  C  C718  1  0.100950  0.598910  0.608870  1.0  -0.0659
  C  C719  1  0.113500  0.539720  0.620640  1.0  -0.1133
  C  C720  1  0.143430  0.548880  0.631900  1.0  0.113
  C  C721  1  0.242100  0.550640  0.699520  1.0  -0.1603
  C  C722  1  0.077120  0.624590  0.597790  1.0  0.1033
  C  C723  1  0.240830  0.494660  0.713120  1.0  -0.1539
  C  C724  1  0.262900  0.559610  0.718790  1.0  -0.0686
  C  C725  1  0.150480  0.583040  0.632420  1.0  -0.1506
  C  C726  1  0.090700  0.563750  0.609170  1.0  -0.1264
  C  C727  1  0.127410  0.218020  0.555130  1.0  -0.1451
  C  C728  1  0.130640  0.184820  0.564650  1.0  0.0327
  C  C729  1  0.150440  0.179960  0.585610  1.0  -0.1338
  C  C730  1  0.103640  0.224420  0.533450  1.0  0.7051
  C  C731  1  0.163250  0.240940  0.586490  1.0  0.1644
  C  C732  1  0.168440  0.303260  0.598740  1.0  -0.0864
  C  C733  1  0.191910  0.321260  0.613130  1.0  0.0371
  C  C734  1  0.302660  0.527660  0.777270  1.0  -0.1202
  C  C735  1  0.290090  0.546080  0.758730  1.0  0.1066
  C  C736  1  0.337950  0.511270  0.824190  1.0  -0.0816
  C  C737  1  0.354870  0.571980  0.824510  1.0  -0.0401
  C  C738  1  0.338450  0.543530  0.813810  1.0  -0.015
  C  C739  1  0.372780  0.534110  0.856880  1.0  0.0279
  C  C740  1  0.372460  0.566640  0.846310  1.0  -0.1374
  C  C741  1  0.355260  0.505840  0.845990  1.0  -0.1563
  C  C742  1  0.152010  0.144070  0.597920  1.0  0.6748
  C  C743  1  0.353560  0.471190  0.858770  1.0  0.702
  C  C744  1  0.388640  0.597840  0.858790  1.0  0.7046
  C  C745  1  0.746280  0.355350  0.065780  1.0  -0.1022
  C  C746  1  0.707700  0.332550  0.096380  1.0  -0.0466
  C  C747  1  0.857070  0.308490  0.121770  1.0  -0.0716
  C  C748  1  0.878630  0.337190  0.117090  1.0  -0.1376
  C  C749  1  0.870030  0.282300  0.135260  1.0  -0.0943
  C  C750  1  0.913620  0.334330  0.123790  1.0  -0.1694
  C  C751  1  0.905680  0.283200  0.142610  1.0  -0.2014
  C  C752  1  0.926610  0.309170  0.137630  1.0  0.0662
  C  C753  1  0.963430  0.309610  0.146300  1.0  -0.0013
  C  C754  1  0.973120  0.289820  0.166610  1.0  -0.133
  C  C755  1  0.988160  0.331980  0.135500  1.0  -0.1462
  C  C756  1  0.272970  0.474530  0.063770  1.0  0.0316
  C  C757  1  0.298630  0.436890  0.096400  1.0  0.6874
  C  C758  1  0.244770  0.489430  0.051820  1.0  -0.1543
  C  C759  1  0.250880  0.516610  0.032030  1.0  0.6897
  C  C760  1  0.210980  0.480530  0.058190  1.0  -0.0528
  C  C761  1  0.267370  0.451240  0.082640  1.0  -0.145
  C  C762  1  0.108250  0.373760  0.121820  1.0  -0.1327
  C  C763  1  0.036040  0.230310  0.236930  1.0  0.2032
  C  C764  1  0.233630  0.441960  0.089340  1.0  -0.0923
  C  C765  1  0.205800  0.456800  0.077000  1.0  0.1213
  C  C766  1  0.017840  0.269110  0.196090  1.0  0.1222
  C  C767  1  0.022950  0.333140  0.143800  1.0  0.0349
  C  C768  1  0.032050  0.312230  0.162810  1.0  -0.1242
  C  C769  1  0.004800  0.240070  0.233510  1.0  -0.0886
  C  C770  1  0.159780  0.420390  0.097070  1.0  -0.0779
  C  C771  1  0.007980  0.290790  0.174610  1.0  0.0449
  C  C772  1  0.098910  0.399050  0.108870  1.0  -0.0626
  C  C773  1  0.039720  0.386500  0.120640  1.0  -0.1149
  C  C774  1  0.048880  0.356570  0.131900  1.0  0.1126
  C  C775  1  0.050640  0.257900  0.199520  1.0  -0.155
  C  C776  1  0.124590  0.422880  0.097790  1.0  0.1025
  C  C777  1  0.994660  0.259170  0.213120  1.0  -0.1519
  C  C778  1  0.059610  0.237100  0.218790  1.0  -0.064
  C  C779  1  0.083040  0.349520  0.132420  1.0  -0.1521
  C  C780  1  0.063750  0.409300  0.109170  1.0  -0.124
  C  C781  1  0.718020  0.372590  0.055130  1.0  -0.1451
  C  C782  1  0.684820  0.369360  0.064650  1.0  0.0317
  C  C783  1  0.679960  0.349560  0.085610  1.0  -0.1336
  C  C784  1  0.724420  0.396360  0.033450  1.0  0.7057
  C  C785  1  0.740940  0.336750  0.086490  1.0  0.1645
  C  C786  1  0.803260  0.331560  0.098740  1.0  -0.0884
  C  C787  1  0.821260  0.308090  0.113130  1.0  0.0377
  C  C788  1  0.027660  0.197340  0.277270  1.0  -0.1195
  C  C789  1  0.046080  0.209910  0.258730  1.0  0.1028
  C  C790  1  0.011270  0.162050  0.324190  1.0  -0.082
  C  C791  1  0.071980  0.145130  0.324510  1.0  -0.0422
  C  C792  1  0.043530  0.161550  0.313810  1.0  -0.0155
  C  C793  1  0.034110  0.127220  0.356880  1.0  0.0293
  C  C794  1  0.066640  0.127540  0.346310  1.0  -0.1365
  C  C795  1  0.005840  0.144740  0.345990  1.0  -0.156
  C  C796  1  0.644070  0.347990  0.097920  1.0  0.675
  C  C797  1  0.971190  0.146440  0.358770  1.0  0.7019
  C  C798  1  0.097840  0.111360  0.358790  1.0  0.7022
  C  C799  1  0.246280  0.855350  0.565780  1.0  -0.1022
  C  C800  1  0.207700  0.832550  0.596380  1.0  -0.0466
  C  C801  1  0.357070  0.808490  0.621770  1.0  -0.0716
  C  C802  1  0.378630  0.837190  0.617090  1.0  -0.1376
  C  C803  1  0.370030  0.782300  0.635260  1.0  -0.0943
  C  C804  1  0.413620  0.834330  0.623790  1.0  -0.1694
  C  C805  1  0.405680  0.783200  0.642610  1.0  -0.2014
  C  C806  1  0.426610  0.809170  0.637630  1.0  0.0662
  C  C807  1  0.463430  0.809610  0.646300  1.0  -0.0305
  C  C808  1  0.473120  0.789820  0.666667  1.0  -0.1344
  C  C809  1  0.488160  0.831980  0.635500  1.0  -0.144
  C  C810  1  0.772970  0.974530  0.563770  1.0  0.0316
  C  C811  1  0.798630  0.936890  0.596400  1.0  0.6874
  C  C812  1  0.744770  0.989430  0.551820  1.0  -0.1543
  C  C813  1  0.750880  0.016610  0.532030  1.0  0.6897
  C  C814  1  0.710980  0.980530  0.558190  1.0  -0.0528
  C  C815  1  0.767370  0.951240  0.582640  1.0  -0.145
  C  C816  1  0.608250  0.873760  0.621820  1.0  -0.1317
  C  C817  1  0.536040  0.730310  0.736930  1.0  0.2116
  C  C818  1  0.733630  0.941960  0.589340  1.0  -0.0923
  C  C819  1  0.705800  0.956800  0.577000  1.0  0.1213
  C  C820  1  0.517840  0.769110  0.696090  1.0  0.1215
  C  C821  1  0.522950  0.833140  0.643800  1.0  0.0339
  C  C822  1  0.532050  0.812230  0.662810  1.0  -0.1183
  C  C823  1  0.504800  0.740070  0.733510  1.0  -0.0869
  C  C824  1  0.659780  0.920390  0.597070  1.0  -0.0779
  C  C825  1  0.507980  0.790790  0.674610  1.0  0.045
  C  C826  1  0.598910  0.899050  0.608870  1.0  -0.063
  C  C827  1  0.539720  0.886500  0.620640  1.0  -0.1149
  C  C828  1  0.548880  0.856570  0.631900  1.0  0.1126
  C  C829  1  0.550640  0.757900  0.699520  1.0  -0.155
  C  C830  1  0.624590  0.922880  0.597790  1.0  0.1025
  C  C831  1  0.494660  0.759170  0.713120  1.0  -0.1518
  C  C832  1  0.559610  0.737100  0.718790  1.0  -0.064
  C  C833  1  0.583040  0.849520  0.632420  1.0  -0.1504
  C  C834  1  0.563750  0.909300  0.609170  1.0  -0.1291
  C  C835  1  0.218020  0.872590  0.555130  1.0  -0.1451
  C  C836  1  0.184820  0.869360  0.564650  1.0  0.0317
  C  C837  1  0.179960  0.849560  0.585610  1.0  -0.1336
  C  C838  1  0.224420  0.896360  0.533450  1.0  0.7057
  C  C839  1  0.240940  0.836750  0.586490  1.0  0.1645
  C  C840  1  0.303260  0.831560  0.598740  1.0  -0.0884
  C  C841  1  0.321260  0.808090  0.613130  1.0  0.0377
  C  C842  1  0.527660  0.697340  0.777270  1.0  -0.1195
  C  C843  1  0.546080  0.709910  0.758730  1.0  0.1093
  C  C844  1  0.511270  0.662050  0.824190  1.0  -0.082
  C  C845  1  0.571980  0.645130  0.824510  1.0  -0.0422
  C  C846  1  0.543530  0.661550  0.813810  1.0  -0.0155
  C  C847  1  0.534110  0.627220  0.856880  1.0  0.0293
  C  C848  1  0.566640  0.627540  0.846310  1.0  -0.1365
  C  C849  1  0.505840  0.644740  0.845990  1.0  -0.156
  C  C850  1  0.144070  0.847990  0.597920  1.0  0.675
  C  C851  1  0.471190  0.646440  0.858770  1.0  0.7019
  C  C852  1  0.597840  0.611360  0.858790  1.0  0.7022
  C  C853  1  0.253720  0.644650  0.065780  1.0  -0.1033
  C  C854  1  0.292300  0.667450  0.096380  1.0  -0.0466
  C  C855  1  0.142930  0.691510  0.121770  1.0  -0.0694
  C  C856  1  0.121370  0.662810  0.117090  1.0  -0.1374
  C  C857  1  0.129970  0.717700  0.135260  1.0  -0.0906
  C  C858  1  0.086380  0.665670  0.123790  1.0  -0.1692
  C  C859  1  0.094320  0.716800  0.142610  1.0  -0.2021
  C  C860  1  0.073390  0.690830  0.137630  1.0  0.0662
  C  C861  1  0.036570  0.690390  0.146300  1.0  -0.0009
  C  C862  1  0.026880  0.710180  0.166610  1.0  -0.1317
  C  C863  1  0.011840  0.668020  0.135500  1.0  -0.1449
  C  C864  1  0.727030  0.525470  0.063770  1.0  0.0302
  C  C865  1  0.701370  0.563110  0.096400  1.0  0.6872
  C  C866  1  0.755230  0.510570  0.051820  1.0  -0.1545
  C  C867  1  0.749120  0.483390  0.032030  1.0  0.6894
  C  C868  1  0.789020  0.519470  0.058190  1.0  -0.053
  C  C869  1  0.732630  0.548760  0.082640  1.0  -0.1448
  C  C870  1  0.891750  0.626240  0.121820  1.0  -0.1343
  C  C871  1  0.963960  0.769690  0.236930  1.0  0.2012
  C  C872  1  0.766370  0.558040  0.089340  1.0  -0.093
  C  C873  1  0.794200  0.543200  0.077000  1.0  0.1219
  C  C874  1  0.982160  0.730890  0.196090  1.0  0.1215
  C  C875  1  0.977050  0.666860  0.143800  1.0  0.0344
  C  C876  1  0.967950  0.687770  0.162810  1.0  -0.1253
  C  C877  1  0.995200  0.759930  0.233510  1.0  -0.0877
  C  C878  1  0.840220  0.579610  0.097070  1.0  -0.0794
  C  C879  1  0.992020  0.709210  0.174610  1.0  0.0442
  C  C880  1  0.901090  0.600950  0.108870  1.0  -0.0628
  C  C881  1  0.960280  0.613500  0.120640  1.0  -0.111
  C  C882  1  0.951120  0.643430  0.131900  1.0  0.1132
  C  C883  1  0.949360  0.742100  0.199520  1.0  -0.1541
  C  C884  1  0.875410  0.577120  0.097790  1.0  0.1027
  C  C885  1  0.005340  0.740830  0.213120  1.0  -0.1492
  C  C886  1  0.940390  0.762900  0.218790  1.0  -0.0639
  C  C887  1  0.916960  0.650480  0.132420  1.0  -0.1519
  C  C888  1  0.936250  0.590700  0.109170  1.0  -0.1212
  C  C889  1  0.281980  0.627410  0.055130  1.0  -0.1452
  C  C890  1  0.315180  0.630640  0.064650  1.0  0.0315
  C  C891  1  0.320040  0.650440  0.085610  1.0  -0.1333
  C  C892  1  0.275580  0.603640  0.033450  1.0  0.7056
  C  C893  1  0.259060  0.663250  0.086490  1.0  0.1649
  C  C894  1  0.196740  0.668440  0.098740  1.0  -0.087
  C  C895  1  0.178740  0.691910  0.113130  1.0  0.0364
  C  C896  1  0.972340  0.802660  0.277270  1.0  -0.12
  C  C897  1  0.953920  0.790090  0.258730  1.0  0.1015
  C  C898  1  0.988730  0.837950  0.324190  1.0  -0.0816
  C  C899  1  0.928020  0.854870  0.324510  1.0  -0.0432
  C  C900  1  0.956470  0.838450  0.313810  1.0  -0.0154
  C  C901  1  0.965890  0.872780  0.356880  1.0  0.0286
  C  C902  1  0.933360  0.872460  0.346310  1.0  -0.1367
  C  C903  1  0.994160  0.855260  0.345990  1.0  -0.1563
  C  C904  1  0.355930  0.652010  0.097920  1.0  0.6743
  C  C905  1  0.028810  0.853560  0.358770  1.0  0.7004
  C  C906  1  0.902160  0.888640  0.358790  1.0  0.7033
  C  C907  1  0.753720  0.144650  0.565780  1.0  -0.1033
  C  C908  1  0.792300  0.167450  0.596380  1.0  -0.0466
  C  C909  1  0.642930  0.191510  0.621770  1.0  -0.0694
  C  C910  1  0.621370  0.162810  0.617090  1.0  -0.1374
  C  C911  1  0.629970  0.217700  0.635260  1.0  -0.0906
  C  C912  1  0.586380  0.165670  0.623790  1.0  -0.1692
  C  C913  1  0.594320  0.216800  0.642610  1.0  -0.2021
  C  C914  1  0.573390  0.190830  0.637630  1.0  0.0663
  C  C915  1  0.536570  0.190390  0.646300  1.0  -0.0298
  C  C916  1  0.526880  0.210180  0.666667  1.0  -0.1333
  C  C917  1  0.511840  0.168020  0.635500  1.0  -0.1429
  C  C918  1  0.227030  0.025470  0.563770  1.0  0.0302
  C  C919  1  0.201370  0.063110  0.596400  1.0  0.6872
  C  C920  1  0.255230  0.010570  0.551820  1.0  -0.1545
  C  C921  1  0.249120  0.983390  0.532030  1.0  0.6894
  C  C922  1  0.289020  0.019470  0.558190  1.0  -0.053
  C  C923  1  0.232630  0.048760  0.582640  1.0  -0.1448
  C  C924  1  0.391750  0.126240  0.621820  1.0  -0.1335
  C  C925  1  0.463960  0.269690  0.736930  1.0  0.2099
  C  C926  1  0.266370  0.058040  0.589340  1.0  -0.093
  C  C927  1  0.294200  0.043200  0.577000  1.0  0.1219
  C  C928  1  0.482160  0.230890  0.696090  1.0  0.1208
  C  C929  1  0.477050  0.166860  0.643800  1.0  0.0334
  C  C930  1  0.467950  0.187770  0.662810  1.0  -0.1193
  C  C931  1  0.495200  0.259930  0.733510  1.0  -0.0862
  C  C932  1  0.340220  0.079610  0.597070  1.0  -0.0794
  C  C933  1  0.492020  0.209210  0.674610  1.0  0.0443
  C  C934  1  0.401090  0.100950  0.608870  1.0  -0.0626
  C  C935  1  0.460280  0.113500  0.620640  1.0  -0.111
  C  C936  1  0.451120  0.143430  0.631900  1.0  0.1132
  C  C937  1  0.449360  0.242100  0.699520  1.0  -0.1542
  C  C938  1  0.375410  0.077120  0.597790  1.0  0.1027
  C  C939  1  0.505340  0.240830  0.713120  1.0  -0.1492
  C  C940  1  0.440390  0.262900  0.718790  1.0  -0.0638
  C  C941  1  0.416960  0.150480  0.632420  1.0  -0.1502
  C  C942  1  0.436250  0.090700  0.609170  1.0  -0.1266
  C  C943  1  0.781980  0.127410  0.555130  1.0  -0.1452
  C  C944  1  0.815180  0.130640  0.564650  1.0  0.0315
  C  C945  1  0.820040  0.150440  0.585610  1.0  -0.1333
  C  C946  1  0.775580  0.103640  0.533450  1.0  0.7056
  C  C947  1  0.759060  0.163250  0.586490  1.0  0.1649
  C  C948  1  0.696740  0.168440  0.598740  1.0  -0.087
  C  C949  1  0.678740  0.191910  0.613130  1.0  0.0364
  C  C950  1  0.472340  0.302660  0.777270  1.0  -0.12
  C  C951  1  0.453920  0.290090  0.758730  1.0  0.1073
  C  C952  1  0.488730  0.337950  0.824190  1.0  -0.0816
  C  C953  1  0.428020  0.354870  0.824510  1.0  -0.0432
  C  C954  1  0.456470  0.338450  0.813810  1.0  -0.0154
  C  C955  1  0.465890  0.372780  0.856880  1.0  0.0286
  C  C956  1  0.433360  0.372460  0.846310  1.0  -0.1367
  C  C957  1  0.494160  0.355260  0.845990  1.0  -0.1563
  C  C958  1  0.855930  0.152010  0.597920  1.0  0.6743
  C  C959  1  0.528810  0.353560  0.858770  1.0  0.7004
  C  C960  1  0.402160  0.388640  0.858790  1.0  0.7033
  C  C961  1  0.644650  0.746280  0.934220  1.0  -0.1011
  C  C962  1  0.667450  0.707700  0.903620  1.0  -0.0483
  C  C963  1  0.691510  0.857070  0.878230  1.0  -0.0603
  C  C964  1  0.662810  0.878630  0.882910  1.0  -0.1337
  C  C965  1  0.717700  0.870030  0.864740  1.0  -0.0874
  C  C966  1  0.665670  0.913620  0.876210  1.0  -0.1667
  C  C967  1  0.716800  0.905680  0.857390  1.0  -0.1982
  C  C968  1  0.690830  0.926610  0.862370  1.0  0.0698
  C  C969  1  0.690390  0.963430  0.853700  1.0  -0.0016
  C  C970  1  0.710180  0.973120  0.833390  1.0  -0.1317
  C  C971  1  0.668020  0.988160  0.864500  1.0  -0.1474
  C  C972  1  0.525470  0.272970  0.936230  1.0  0.0326
  C  C973  1  0.563110  0.298630  0.903600  1.0  0.6878
  C  C974  1  0.510570  0.244770  0.948180  1.0  -0.1545
  C  C975  1  0.483390  0.250880  0.967970  1.0  0.6901
  C  C976  1  0.519470  0.210980  0.941810  1.0  -0.0533
  C  C977  1  0.548760  0.267370  0.917360  1.0  -0.1446
  C  C978  1  0.626240  0.108250  0.878180  1.0  -0.1349
  C  C979  1  0.769690  0.036040  0.763070  1.0  0.2084
  C  C980  1  0.558040  0.233630  0.910660  1.0  -0.0927
  C  C981  1  0.543200  0.205800  0.923000  1.0  0.1227
  C  C982  1  0.730890  0.017840  0.803910  1.0  0.1213
  C  C983  1  0.666860  0.022950  0.856200  1.0  0.0348
  C  C984  1  0.687770  0.032050  0.837190  1.0  -0.1192
  C  C985  1  0.759930  0.004800  0.766490  1.0  -0.0921
  C  C986  1  0.579610  0.159780  0.902930  1.0  -0.0788
  C  C987  1  0.709210  0.007980  0.825390  1.0  0.0444
  C  C988  1  0.600950  0.098910  0.891130  1.0  -0.0659
  C  C989  1  0.613500  0.039720  0.879360  1.0  -0.1131
  C  C990  1  0.643430  0.048880  0.868100  1.0  0.1133
  C  C991  1  0.742100  0.050640  0.800480  1.0  -0.1602
  C  C992  1  0.577120  0.124590  0.902210  1.0  0.1033
  C  C993  1  0.740830  0.994660  0.786880  1.0  -0.1542
  C  C994  1  0.762900  0.059610  0.781210  1.0  -0.0694
  C  C995  1  0.650480  0.083040  0.867580  1.0  -0.1522
  C  C996  1  0.590700  0.063750  0.890830  1.0  -0.1212
  C  C997  1  0.627410  0.718020  0.944870  1.0  -0.1468
  C  C998  1  0.630640  0.684820  0.935350  1.0  0.0338
  C  C999  1  0.650440  0.679960  0.914390  1.0  -0.1338
  C  C1000  1  0.603640  0.724420  0.966550  1.0  0.7054
  C  C1001  1  0.663250  0.740940  0.913510  1.0  0.1644
  C  C1002  1  0.668440  0.803260  0.901260  1.0  -0.0867
  C  C1003  1  0.691910  0.821260  0.886870  1.0  0.0365
  C  C1004  1  0.802660  0.027660  0.722730  1.0  -0.1196
  C  C1005  1  0.790090  0.046080  0.741270  1.0  0.1007
  C  C1006  1  0.837950  0.011270  0.675810  1.0  -0.0816
  C  C1007  1  0.854870  0.071980  0.675490  1.0  -0.0393
  C  C1008  1  0.838450  0.043530  0.686190  1.0  -0.0153
  C  C1009  1  0.872780  0.034110  0.643120  1.0  0.0282
  C  C1010  1  0.872460  0.066640  0.653690  1.0  -0.137
  C  C1011  1  0.855260  0.005840  0.654010  1.0  -0.1561
  C  C1012  1  0.652010  0.644070  0.902080  1.0  0.6746
  C  C1013  1  0.853560  0.971190  0.641230  1.0  0.7022
  C  C1014  1  0.888640  0.097840  0.641210  1.0  0.7052
  C  C1015  1  0.144650  0.246280  0.434220  1.0  -0.1011
  C  C1016  1  0.167450  0.207700  0.403620  1.0  -0.0483
  C  C1017  1  0.191510  0.357070  0.378230  1.0  -0.0603
  C  C1018  1  0.162810  0.378630  0.382910  1.0  -0.1337
  C  C1019  1  0.217700  0.370030  0.364740  1.0  -0.0874
  C  C1020  1  0.165670  0.413620  0.376210  1.0  -0.1667
  C  C1021  1  0.216800  0.405680  0.357390  1.0  -0.1982
  C  C1022  1  0.190830  0.426610  0.362370  1.0  0.0698
  C  C1023  1  0.190390  0.463430  0.353700  1.0  -0.0016
  C  C1024  1  0.210180  0.473120  0.333390  1.0  -0.1317
  C  C1025  1  0.168020  0.488160  0.364500  1.0  -0.1474
  C  C1026  1  0.025470  0.772970  0.436230  1.0  0.0326
  C  C1027  1  0.063110  0.798630  0.403600  1.0  0.6878
  C  C1028  1  0.010570  0.744770  0.448180  1.0  -0.1545
  C  C1029  1  0.983390  0.750880  0.467970  1.0  0.6901
  C  C1030  1  0.019470  0.710980  0.441810  1.0  -0.0533
  C  C1031  1  0.048760  0.767370  0.417360  1.0  -0.1446
  C  C1032  1  0.126240  0.608250  0.378180  1.0  -0.134
  C  C1033  1  0.269690  0.536040  0.263070  1.0  0.2169
  C  C1034  1  0.058040  0.733630  0.410660  1.0  -0.0927
  C  C1035  1  0.043200  0.705800  0.423000  1.0  0.1227
  C  C1036  1  0.230890  0.517840  0.303910  1.0  0.1213
  C  C1037  1  0.166860  0.522950  0.356200  1.0  0.0348
  C  C1038  1  0.187770  0.532050  0.337190  1.0  -0.1137
  C  C1039  1  0.259930  0.504800  0.266490  1.0  -0.09
  C  C1040  1  0.079610  0.659780  0.402930  1.0  -0.0788
  C  C1041  1  0.209210  0.507980  0.325390  1.0  0.0444
  C  C1042  1  0.100950  0.598910  0.391130  1.0  -0.0676
  C  C1043  1  0.113500  0.539720  0.379360  1.0  -0.1131
  C  C1044  1  0.143430  0.548880  0.368100  1.0  0.1133
  C  C1045  1  0.242100  0.550640  0.300480  1.0  -0.1602
  C  C1046  1  0.077120  0.624590  0.402210  1.0  0.1033
  C  C1047  1  0.240830  0.494660  0.286880  1.0  -0.1542
  C  C1048  1  0.262900  0.559610  0.281210  1.0  -0.0693
  C  C1049  1  0.150480  0.583040  0.367580  1.0  -0.1502
  C  C1050  1  0.090700  0.563750  0.390830  1.0  -0.1259
  C  C1051  1  0.127410  0.218020  0.444870  1.0  -0.1468
  C  C1052  1  0.130640  0.184820  0.435350  1.0  0.0338
  C  C1053  1  0.150440  0.179960  0.414390  1.0  -0.1338
  C  C1054  1  0.103640  0.224420  0.466550  1.0  0.7054
  C  C1055  1  0.163250  0.240940  0.413510  1.0  0.1644
  C  C1056  1  0.168440  0.303260  0.401260  1.0  -0.0867
  C  C1057  1  0.191910  0.321260  0.386870  1.0  0.0365
  C  C1058  1  0.302660  0.527660  0.222730  1.0  -0.1196
  C  C1059  1  0.290090  0.546080  0.241270  1.0  0.1067
  C  C1060  1  0.337950  0.511270  0.175810  1.0  -0.0816
  C  C1061  1  0.354870  0.571980  0.175490  1.0  -0.0393
  C  C1062  1  0.338450  0.543530  0.186190  1.0  -0.0153
  C  C1063  1  0.372780  0.534110  0.143120  1.0  0.0282
  C  C1064  1  0.372460  0.566640  0.153690  1.0  -0.137
  C  C1065  1  0.355260  0.505840  0.154010  1.0  -0.1561
  C  C1066  1  0.152010  0.144070  0.402080  1.0  0.6746
  C  C1067  1  0.353560  0.471190  0.141230  1.0  0.7022
  C  C1068  1  0.388640  0.597840  0.141210  1.0  0.7052
  C  C1069  1  0.355350  0.253720  0.934220  1.0  -0.1021
  C  C1070  1  0.332550  0.292300  0.903620  1.0  -0.048
  C  C1071  1  0.308490  0.142930  0.878230  1.0  -0.0601
  C  C1072  1  0.337190  0.121370  0.882910  1.0  -0.1333
  C  C1073  1  0.282300  0.129970  0.864740  1.0  -0.0866
  C  C1074  1  0.334330  0.086380  0.876210  1.0  -0.1656
  C  C1075  1  0.283200  0.094320  0.857390  1.0  -0.1985
  C  C1076  1  0.309170  0.073390  0.862370  1.0  0.0694
  C  C1077  1  0.309610  0.036570  0.853700  1.0  -0.0017
  C  C1078  1  0.289820  0.026880  0.833390  1.0  -0.1324
  C  C1079  1  0.331980  0.011840  0.864500  1.0  -0.1469
  C  C1080  1  0.474530  0.727030  0.936230  1.0  0.0342
  C  C1081  1  0.436890  0.701370  0.903600  1.0  0.6879
  C  C1082  1  0.489430  0.755230  0.948180  1.0  -0.1541
  C  C1083  1  0.516610  0.749120  0.967970  1.0  0.6889
  C  C1084  1  0.480530  0.789020  0.941810  1.0  -0.0543
  C  C1085  1  0.451240  0.732630  0.917360  1.0  -0.1451
  C  C1086  1  0.373760  0.891750  0.878180  1.0  -0.1352
  C  C1087  1  0.230310  0.963960  0.763070  1.0  0.2064
  C  C1088  1  0.441960  0.766370  0.910660  1.0  -0.0939
  C  C1089  1  0.456800  0.794200  0.923000  1.0  0.123
  C  C1090  1  0.269110  0.982160  0.803910  1.0  0.1215
  C  C1091  1  0.333140  0.977050  0.856200  1.0  0.0349
  C  C1092  1  0.312230  0.967950  0.837190  1.0  -0.1192
  C  C1093  1  0.240070  0.995200  0.766490  1.0  -0.094
  C  C1094  1  0.420390  0.840220  0.902930  1.0  -0.0786
  C  C1095  1  0.290790  0.992020  0.825390  1.0  0.0439
  C  C1096  1  0.399050  0.901090  0.891130  1.0  -0.0634
  C  C1097  1  0.386500  0.960280  0.879360  1.0  -0.1119
  C  C1098  1  0.356570  0.951120  0.868100  1.0  0.1131
  C  C1099  1  0.257900  0.949360  0.800480  1.0  -0.1585
  C  C1100  1  0.422880  0.875410  0.902210  1.0  0.1023
  C  C1101  1  0.259170  0.005340  0.786880  1.0  -0.1544
  C  C1102  1  0.237100  0.940390  0.781210  1.0  -0.0697
  C  C1103  1  0.349520  0.916960  0.867580  1.0  -0.1534
  C  C1104  1  0.409300  0.936250  0.890830  1.0  -0.1194
  C  C1105  1  0.372590  0.281980  0.944870  1.0  -0.1468
  C  C1106  1  0.369360  0.315180  0.935350  1.0  0.033
  C  C1107  1  0.349560  0.320040  0.914390  1.0  -0.1343
  C  C1108  1  0.396360  0.275580  0.966550  1.0  0.7047
  C  C1109  1  0.336750  0.259060  0.913510  1.0  0.1646
  C  C1110  1  0.331560  0.196740  0.901260  1.0  -0.0883
  C  C1111  1  0.308090  0.178740  0.886870  1.0  0.0368
  C  C1112  1  0.197340  0.972340  0.722730  1.0  -0.1199
  C  C1113  1  0.209910  0.953920  0.741270  1.0  0.1019
  C  C1114  1  0.162050  0.988730  0.675810  1.0  -0.0806
  C  C1115  1  0.145130  0.928020  0.675490  1.0  -0.0401
  C  C1116  1  0.161550  0.956470  0.686190  1.0  -0.0156
  C  C1117  1  0.127220  0.965890  0.643120  1.0  0.028
  C  C1118  1  0.127540  0.933360  0.653690  1.0  -0.1373
  C  C1119  1  0.144740  0.994160  0.654010  1.0  -0.1555
  C  C1120  1  0.347990  0.355930  0.902080  1.0  0.6747
  C  C1121  1  0.146440  0.028810  0.641230  1.0  0.7026
  C  C1122  1  0.111360  0.902160  0.641210  1.0  0.7039
  C  C1123  1  0.855350  0.753720  0.434220  1.0  -0.1021
  C  C1124  1  0.832550  0.792300  0.403620  1.0  -0.048
  C  C1125  1  0.808490  0.642930  0.378230  1.0  -0.0601
  C  C1126  1  0.837190  0.621370  0.382910  1.0  -0.1333
  C  C1127  1  0.782300  0.629970  0.364740  1.0  -0.0866
  C  C1128  1  0.834330  0.586380  0.376210  1.0  -0.1656
  C  C1129  1  0.783200  0.594320  0.357390  1.0  -0.1985
  C  C1130  1  0.809170  0.573390  0.362370  1.0  0.0694
  C  C1131  1  0.809610  0.536570  0.353700  1.0  -0.0017
  C  C1132  1  0.789820  0.526880  0.333390  1.0  -0.1324
  C  C1133  1  0.831980  0.511840  0.364500  1.0  -0.1469
  C  C1134  1  0.974530  0.227030  0.436230  1.0  0.0342
  C  C1135  1  0.936890  0.201370  0.403600  1.0  0.6879
  C  C1136  1  0.989430  0.255230  0.448180  1.0  -0.1541
  C  C1137  1  0.016610  0.249120  0.467970  1.0  0.6889
  C  C1138  1  0.980530  0.289020  0.441810  1.0  -0.0543
  C  C1139  1  0.951240  0.232630  0.417360  1.0  -0.1451
  C  C1140  1  0.873760  0.391750  0.378180  1.0  -0.1337
  C  C1141  1  0.730310  0.463960  0.263070  1.0  0.215
  C  C1142  1  0.941960  0.266370  0.410660  1.0  -0.0939
  C  C1143  1  0.956800  0.294200  0.423000  1.0  0.123
  C  C1144  1  0.769110  0.482160  0.303910  1.0  0.1215
  C  C1145  1  0.833140  0.477050  0.356200  1.0  0.0349
  C  C1146  1  0.812230  0.467950  0.337190  1.0  -0.1139
  C  C1147  1  0.740070  0.495200  0.266490  1.0  -0.0917
  C  C1148  1  0.920390  0.340220  0.402930  1.0  -0.0786
  C  C1149  1  0.790790  0.492020  0.325390  1.0  0.0439
  C  C1150  1  0.899050  0.401090  0.391130  1.0  -0.0645
  C  C1151  1  0.886500  0.460280  0.379360  1.0  -0.1119
  C  C1152  1  0.856570  0.451120  0.368100  1.0  0.1131
  C  C1153  1  0.757900  0.449360  0.300480  1.0  -0.1585
  C  C1154  1  0.922880  0.375410  0.402210  1.0  0.1023
  C  C1155  1  0.759170  0.505340  0.286880  1.0  -0.1544
  C  C1156  1  0.737100  0.440390  0.281210  1.0  -0.0697
  C  C1157  1  0.849520  0.416960  0.367580  1.0  -0.1516
  C  C1158  1  0.909300  0.436250  0.390830  1.0  -0.1242
  C  C1159  1  0.872590  0.781980  0.444870  1.0  -0.1468
  C  C1160  1  0.869360  0.815180  0.435350  1.0  0.033
  C  C1161  1  0.849560  0.820040  0.414390  1.0  -0.1343
  C  C1162  1  0.896360  0.775580  0.466550  1.0  0.7047
  C  C1163  1  0.836750  0.759060  0.413510  1.0  0.1646
  C  C1164  1  0.831560  0.696740  0.401260  1.0  -0.0883
  C  C1165  1  0.808090  0.678740  0.386870  1.0  0.0368
  C  C1166  1  0.697340  0.472340  0.222730  1.0  -0.1199
  C  C1167  1  0.709910  0.453920  0.241270  1.0  0.1083
  C  C1168  1  0.662050  0.488730  0.175810  1.0  -0.0806
  C  C1169  1  0.645130  0.428020  0.175490  1.0  -0.0401
  C  C1170  1  0.661550  0.456470  0.186190  1.0  -0.0156
  C  C1171  1  0.627220  0.465890  0.143120  1.0  0.028
  C  C1172  1  0.627540  0.433360  0.153690  1.0  -0.1373
  C  C1173  1  0.644740  0.494160  0.154010  1.0  -0.1555
  C  C1174  1  0.847990  0.855930  0.402080  1.0  0.6747
  C  C1175  1  0.646440  0.528810  0.141230  1.0  0.7026
  C  C1176  1  0.611360  0.402160  0.141210  1.0  0.7039
  C  C1177  1  0.253720  0.644650  0.934220  1.0  -0.1045
  C  C1178  1  0.292300  0.667450  0.903620  1.0  -0.0464
  C  C1179  1  0.142930  0.691510  0.878230  1.0  -0.0616
  C  C1180  1  0.121370  0.662810  0.882910  1.0  -0.1381
  C  C1181  1  0.129970  0.717700  0.864740  1.0  -0.0902
  C  C1182  1  0.086380  0.665670  0.876210  1.0  -0.1684
  C  C1183  1  0.094320  0.716800  0.857390  1.0  -0.2029
  C  C1184  1  0.073390  0.690830  0.862370  1.0  0.0659
  C  C1185  1  0.036570  0.690390  0.853700  1.0  -0.0015
  C  C1186  1  0.026880  0.710180  0.833390  1.0  -0.1313
  C  C1187  1  0.011840  0.668020  0.864500  1.0  -0.143
  C  C1188  1  0.727030  0.525470  0.936230  1.0  0.0304
  C  C1189  1  0.701370  0.563110  0.903600  1.0  0.6871
  C  C1190  1  0.755230  0.510570  0.948180  1.0  -0.1543
  C  C1191  1  0.749120  0.483390  0.967970  1.0  0.6895
  C  C1192  1  0.789020  0.519470  0.941810  1.0  -0.0533
  C  C1193  1  0.732630  0.548760  0.917360  1.0  -0.1446
  C  C1194  1  0.891750  0.626240  0.878180  1.0  -0.1347
  C  C1195  1  0.963960  0.769690  0.763070  1.0  0.2006
  C  C1196  1  0.766370  0.558040  0.910660  1.0  -0.092
  C  C1197  1  0.794200  0.543200  0.923000  1.0  0.122
  C  C1198  1  0.982160  0.730890  0.803910  1.0  0.1213
  C  C1199  1  0.977050  0.666860  0.856200  1.0  0.0341
  C  C1200  1  0.967950  0.687770  0.837190  1.0  -0.126
  C  C1201  1  0.995200  0.759930  0.766490  1.0  -0.089
  C  C1202  1  0.840220  0.579610  0.902930  1.0  -0.0797
  C  C1203  1  0.992020  0.709210  0.825390  1.0  0.0442
  C  C1204  1  0.901090  0.600950  0.891130  1.0  -0.0628
  C  C1205  1  0.960280  0.613500  0.879360  1.0  -0.1111
  C  C1206  1  0.951120  0.643430  0.868100  1.0  0.1136
  C  C1207  1  0.949360  0.742100  0.800480  1.0  -0.1544
  C  C1208  1  0.875410  0.577120  0.902210  1.0  0.1023
  C  C1209  1  0.005340  0.740830  0.786880  1.0  -0.1487
  C  C1210  1  0.940390  0.762900  0.781210  1.0  -0.0643
  C  C1211  1  0.916960  0.650480  0.867580  1.0  -0.1513
  C  C1212  1  0.936250  0.590700  0.890830  1.0  -0.1216
  C  C1213  1  0.281980  0.627410  0.944870  1.0  -0.1468
  C  C1214  1  0.315180  0.630640  0.935350  1.0  0.0321
  C  C1215  1  0.320040  0.650440  0.914390  1.0  -0.1332
  C  C1216  1  0.275580  0.603640  0.966550  1.0  0.7058
  C  C1217  1  0.259060  0.663250  0.913510  1.0  0.1648
  C  C1218  1  0.196740  0.668440  0.901260  1.0  -0.0865
  C  C1219  1  0.178740  0.691910  0.886870  1.0  0.0357
  C  C1220  1  0.972340  0.802660  0.722730  1.0  -0.1195
  C  C1221  1  0.953920  0.790090  0.741270  1.0  0.1013
  C  C1222  1  0.988730  0.837950  0.675810  1.0  -0.0816
  C  C1223  1  0.928020  0.854870  0.675490  1.0  -0.0428
  C  C1224  1  0.956470  0.838450  0.686190  1.0  -0.0157
  C  C1225  1  0.965890  0.872780  0.643120  1.0  0.0292
  C  C1226  1  0.933360  0.872460  0.653690  1.0  -0.1363
  C  C1227  1  0.994160  0.855260  0.654010  1.0  -0.1559
  C  C1228  1  0.355930  0.652010  0.902080  1.0  0.6741
  C  C1229  1  0.028810  0.853560  0.641230  1.0  0.7005
  C  C1230  1  0.902160  0.888640  0.641210  1.0  0.7039
  C  C1231  1  0.753720  0.144650  0.434220  1.0  -0.1045
  C  C1232  1  0.792300  0.167450  0.403620  1.0  -0.0464
  C  C1233  1  0.642930  0.191510  0.378230  1.0  -0.0616
  C  C1234  1  0.621370  0.162810  0.382910  1.0  -0.1381
  C  C1235  1  0.629970  0.217700  0.364740  1.0  -0.0902
  C  C1236  1  0.586380  0.165670  0.376210  1.0  -0.1684
  C  C1237  1  0.594320  0.216800  0.357390  1.0  -0.2029
  C  C1238  1  0.573390  0.190830  0.362370  1.0  0.0659
  C  C1239  1  0.536570  0.190390  0.353700  1.0  -0.0015
  C  C1240  1  0.526880  0.210180  0.333390  1.0  -0.1313
  C  C1241  1  0.511840  0.168020  0.364500  1.0  -0.143
  C  C1242  1  0.227030  0.025470  0.436230  1.0  0.0304
  C  C1243  1  0.201370  0.063110  0.403600  1.0  0.6871
  C  C1244  1  0.255230  0.010570  0.448180  1.0  -0.1543
  C  C1245  1  0.249120  0.983390  0.467970  1.0  0.6895
  C  C1246  1  0.289020  0.019470  0.441810  1.0  -0.0533
  C  C1247  1  0.232630  0.048760  0.417360  1.0  -0.1446
  C  C1248  1  0.391750  0.126240  0.378180  1.0  -0.1338
  C  C1249  1  0.463960  0.269690  0.263070  1.0  0.2092
  C  C1250  1  0.266370  0.058040  0.410660  1.0  -0.092
  C  C1251  1  0.294200  0.043200  0.423000  1.0  0.122
  C  C1252  1  0.482160  0.230890  0.303910  1.0  0.1213
  C  C1253  1  0.477050  0.166860  0.356200  1.0  0.0341
  C  C1254  1  0.467950  0.187770  0.337190  1.0  -0.12
  C  C1255  1  0.495200  0.259930  0.266490  1.0  -0.0875
  C  C1256  1  0.340220  0.079610  0.402930  1.0  -0.0797
  C  C1257  1  0.492020  0.209210  0.325390  1.0  0.0442
  C  C1258  1  0.401090  0.100950  0.391130  1.0  -0.0638
  C  C1259  1  0.460280  0.113500  0.379360  1.0  -0.1111
  C  C1260  1  0.451120  0.143430  0.368100  1.0  0.1136
  C  C1261  1  0.449360  0.242100  0.300480  1.0  -0.1544
  C  C1262  1  0.375410  0.077120  0.402210  1.0  0.1023
  C  C1263  1  0.505340  0.240830  0.286880  1.0  -0.1487
  C  C1264  1  0.440390  0.262900  0.281210  1.0  -0.0643
  C  C1265  1  0.416960  0.150480  0.367580  1.0  -0.1493
  C  C1266  1  0.436250  0.090700  0.390830  1.0  -0.1266
  C  C1267  1  0.781980  0.127410  0.444870  1.0  -0.1468
  C  C1268  1  0.815180  0.130640  0.435350  1.0  0.0321
  C  C1269  1  0.820040  0.150440  0.414390  1.0  -0.1332
  C  C1270  1  0.775580  0.103640  0.466550  1.0  0.7058
  C  C1271  1  0.759060  0.163250  0.413510  1.0  0.1648
  C  C1272  1  0.696740  0.168440  0.401260  1.0  -0.0865
  C  C1273  1  0.678740  0.191910  0.386870  1.0  0.0357
  C  C1274  1  0.472340  0.302660  0.222730  1.0  -0.1195
  C  C1275  1  0.453920  0.290090  0.241270  1.0  0.1072
  C  C1276  1  0.488730  0.337950  0.175810  1.0  -0.0816
  C  C1277  1  0.428020  0.354870  0.175490  1.0  -0.0428
  C  C1278  1  0.456470  0.338450  0.186190  1.0  -0.0157
  C  C1279  1  0.465890  0.372780  0.143120  1.0  0.0292
  C  C1280  1  0.433360  0.372460  0.153690  1.0  -0.1363
  C  C1281  1  0.494160  0.355260  0.154010  1.0  -0.1559
  C  C1282  1  0.855930  0.152010  0.402080  1.0  0.6741
  C  C1283  1  0.528810  0.353560  0.141230  1.0  0.7005
  C  C1284  1  0.402160  0.388640  0.141210  1.0  0.7039
  C  C1285  1  0.746280  0.355350  0.934220  1.0  -0.1033
  C  C1286  1  0.707700  0.332550  0.903620  1.0  -0.0469
  C  C1287  1  0.857070  0.308490  0.878230  1.0  -0.0632
  C  C1288  1  0.878630  0.337190  0.882910  1.0  -0.1385
  C  C1289  1  0.870030  0.282300  0.864740  1.0  -0.0915
  C  C1290  1  0.913620  0.334330  0.876210  1.0  -0.1677
  C  C1291  1  0.905680  0.283200  0.857390  1.0  -0.2021
  C  C1292  1  0.926610  0.309170  0.862370  1.0  0.0656
  C  C1293  1  0.963430  0.309610  0.853700  1.0  -0.0019
  C  C1294  1  0.973120  0.289820  0.833390  1.0  -0.1327
  C  C1295  1  0.988160  0.331980  0.864500  1.0  -0.1442
  C  C1296  1  0.272970  0.474530  0.936230  1.0  0.0315
  C  C1297  1  0.298630  0.436890  0.903600  1.0  0.6873
  C  C1298  1  0.244770  0.489430  0.948180  1.0  -0.1547
  C  C1299  1  0.250880  0.516610  0.967970  1.0  0.6897
  C  C1300  1  0.210980  0.480530  0.941810  1.0  -0.0536
  C  C1301  1  0.267370  0.451240  0.917360  1.0  -0.1448
  C  C1302  1  0.108250  0.373760  0.878180  1.0  -0.1331
  C  C1303  1  0.036040  0.230310  0.763070  1.0  0.2031
  C  C1304  1  0.233630  0.441960  0.910660  1.0  -0.0918
  C  C1305  1  0.205800  0.456800  0.923000  1.0  0.1213
  C  C1306  1  0.017840  0.269110  0.803910  1.0  0.1221
  C  C1307  1  0.022950  0.333140  0.856200  1.0  0.0345
  C  C1308  1  0.032050  0.312230  0.837190  1.0  -0.1248
  C  C1309  1  0.004800  0.240070  0.766490  1.0  -0.089
  C  C1310  1  0.159780  0.420390  0.902930  1.0  -0.0788
  C  C1311  1  0.007980  0.290790  0.825390  1.0  0.0448
  C  C1312  1  0.098910  0.399050  0.891130  1.0  -0.0633
  C  C1313  1  0.039720  0.386500  0.879360  1.0  -0.1145
  C  C1314  1  0.048880  0.356570  0.868100  1.0  0.1129
  C  C1315  1  0.050640  0.257900  0.800480  1.0  -0.1546
  C  C1316  1  0.124590  0.422880  0.902210  1.0  0.1024
  C  C1317  1  0.994660  0.259170  0.786880  1.0  -0.1513
  C  C1318  1  0.059610  0.237100  0.781210  1.0  -0.0644
  C  C1319  1  0.083040  0.349520  0.867580  1.0  -0.1517
  C  C1320  1  0.063750  0.409300  0.890830  1.0  -0.1232
  C  C1321  1  0.718020  0.372590  0.944870  1.0  -0.147
  C  C1322  1  0.684820  0.369360  0.935350  1.0  0.0322
  C  C1323  1  0.679960  0.349560  0.914390  1.0  -0.1337
  C  C1324  1  0.724420  0.396360  0.966550  1.0  0.706
  C  C1325  1  0.740940  0.336750  0.913510  1.0  0.1645
  C  C1326  1  0.803260  0.331560  0.901260  1.0  -0.0883
  C  C1327  1  0.821260  0.308090  0.886870  1.0  0.0367
  C  C1328  1  0.027660  0.197340  0.722730  1.0  -0.119
  C  C1329  1  0.046080  0.209910  0.741270  1.0  0.1026
  C  C1330  1  0.011270  0.162050  0.675810  1.0  -0.082
  C  C1331  1  0.071980  0.145130  0.675490  1.0  -0.0419
  C  C1332  1  0.043530  0.161550  0.686190  1.0  -0.0158
  C  C1333  1  0.034110  0.127220  0.643120  1.0  0.0295
  C  C1334  1  0.066640  0.127540  0.653690  1.0  -0.1363
  C  C1335  1  0.005840  0.144740  0.654010  1.0  -0.156
  C  C1336  1  0.644070  0.347990  0.902080  1.0  0.6747
  C  C1337  1  0.971190  0.146440  0.641230  1.0  0.7017
  C  C1338  1  0.097840  0.111360  0.641210  1.0  0.7027
  C  C1339  1  0.246280  0.855350  0.434220  1.0  -0.1033
  C  C1340  1  0.207700  0.832550  0.403620  1.0  -0.0469
  C  C1341  1  0.357070  0.808490  0.378230  1.0  -0.0632
  C  C1342  1  0.378630  0.837190  0.382910  1.0  -0.1385
  C  C1343  1  0.370030  0.782300  0.364740  1.0  -0.0915
  C  C1344  1  0.413620  0.834330  0.376210  1.0  -0.1677
  C  C1345  1  0.405680  0.783200  0.357390  1.0  -0.2021
  C  C1346  1  0.426610  0.809170  0.362370  1.0  0.0656
  C  C1347  1  0.463430  0.809610  0.353700  1.0  -0.0019
  C  C1348  1  0.473120  0.789820  0.333390  1.0  -0.1327
  C  C1349  1  0.488160  0.831980  0.364500  1.0  -0.1442
  C  C1350  1  0.772970  0.974530  0.436230  1.0  0.0315
  C  C1351  1  0.798630  0.936890  0.403600  1.0  0.6873
  C  C1352  1  0.744770  0.989430  0.448180  1.0  -0.1547
  C  C1353  1  0.750880  0.016610  0.467970  1.0  0.6897
  C  C1354  1  0.710980  0.980530  0.441810  1.0  -0.0536
  C  C1355  1  0.767370  0.951240  0.417360  1.0  -0.1448
  C  C1356  1  0.608250  0.873760  0.378180  1.0  -0.132
  C  C1357  1  0.536040  0.730310  0.263070  1.0  0.2115
  C  C1358  1  0.733630  0.941960  0.410660  1.0  -0.0918
  C  C1359  1  0.705800  0.956800  0.423000  1.0  0.1213
  C  C1360  1  0.517840  0.769110  0.303910  1.0  0.1221
  C  C1361  1  0.522950  0.833140  0.356200  1.0  0.0345
  C  C1362  1  0.532050  0.812230  0.337190  1.0  -0.119
  C  C1363  1  0.504800  0.740070  0.266490  1.0  -0.0872
  C  C1364  1  0.659780  0.920390  0.402930  1.0  -0.0788
  C  C1365  1  0.507980  0.790790  0.325390  1.0  0.0448
  C  C1366  1  0.598910  0.899050  0.391130  1.0  -0.0649
  C  C1367  1  0.539720  0.886500  0.379360  1.0  -0.1145
  C  C1368  1  0.548880  0.856570  0.368100  1.0  0.1129
  C  C1369  1  0.550640  0.757900  0.300480  1.0  -0.1546
  C  C1370  1  0.624590  0.922880  0.402210  1.0  0.1024
  C  C1371  1  0.494660  0.759170  0.286880  1.0  -0.1513
  C  C1372  1  0.559610  0.737100  0.281210  1.0  -0.0644
  C  C1373  1  0.583040  0.849520  0.367580  1.0  -0.15
  C  C1374  1  0.563750  0.909300  0.390830  1.0  -0.1282
  C  C1375  1  0.218020  0.872590  0.444870  1.0  -0.147
  C  C1376  1  0.184820  0.869360  0.435350  1.0  0.0322
  C  C1377  1  0.179960  0.849560  0.414390  1.0  -0.1337
  C  C1378  1  0.224420  0.896360  0.466550  1.0  0.706
  C  C1379  1  0.240940  0.836750  0.413510  1.0  0.1645
  C  C1380  1  0.303260  0.831560  0.401260  1.0  -0.0883
  C  C1381  1  0.321260  0.808090  0.386870  1.0  0.0367
  C  C1382  1  0.527660  0.697340  0.222730  1.0  -0.119
  C  C1383  1  0.546080  0.709910  0.241270  1.0  0.1092
  C  C1384  1  0.511270  0.662050  0.175810  1.0  -0.082
  C  C1385  1  0.571980  0.645130  0.175490  1.0  -0.0419
  C  C1386  1  0.543530  0.661550  0.186190  1.0  -0.0158
  C  C1387  1  0.534110  0.627220  0.143120  1.0  0.0295
  C  C1388  1  0.566640  0.627540  0.153690  1.0  -0.1363
  C  C1389  1  0.505840  0.644740  0.154010  1.0  -0.156
  C  C1390  1  0.144070  0.847990  0.402080  1.0  0.6747
  C  C1391  1  0.471190  0.646440  0.141230  1.0  0.7017
  C  C1392  1  0.597840  0.611360  0.141210  1.0  0.7027
  N  N1393  1  0.446570  0.828910  0.083390  1.0  0.1103
  N  N1394  1  0.449630  0.884210  0.084000  1.0  -0.1938
  N  N1395  1  0.464680  0.856350  0.075770  1.0  -0.2113
  N  N1396  1  0.320250  0.229460  0.098590  1.0  0.1942
  N  N1397  1  0.284300  0.203080  0.121260  1.0  -0.1807
  N  N1398  1  0.179480  0.950830  0.291070  1.0  0.0951
  N  N1399  1  0.179400  0.919820  0.281060  1.0  -0.1731
  N  N1400  1  0.197500  0.920970  0.261340  1.0  -0.2063
  N  N1401  1  0.292490  0.233700  0.112580  1.0  -0.2233
  N  N1402  1  0.946570  0.328910  0.583390  1.0  0.1103
  N  N1403  1  0.949630  0.384210  0.584000  1.0  -0.1938
  N  N1404  1  0.964680  0.356350  0.575770  1.0  -0.2113
  N  N1405  1  0.820250  0.729460  0.598590  1.0  0.1942
  N  N1406  1  0.784300  0.703080  0.621260  1.0  -0.1807
  N  N1407  1  0.679480  0.450830  0.791070  1.0  0.0951
  N  N1408  1  0.679400  0.419820  0.781060  1.0  -0.1731
  N  N1409  1  0.697500  0.420970  0.761340  1.0  -0.2063
  N  N1410  1  0.792490  0.733700  0.612580  1.0  -0.2233
  N  N1411  1  0.553430  0.171090  0.083390  1.0  0.1119
  N  N1412  1  0.550370  0.115790  0.084000  1.0  -0.1908
  N  N1413  1  0.535320  0.143650  0.075770  1.0  -0.2024
  N  N1414  1  0.679750  0.770540  0.098590  1.0  0.1941
  N  N1415  1  0.715700  0.796920  0.121260  1.0  -0.1823
  N  N1416  1  0.820520  0.049170  0.291070  1.0  0.095
  N  N1417  1  0.820600  0.080180  0.281060  1.0  -0.174
  N  N1418  1  0.802500  0.079030  0.261340  1.0  -0.2067
  N  N1419  1  0.707510  0.766300  0.112580  1.0  -0.224
  N  N1420  1  0.053430  0.671090  0.583390  1.0  0.1119
  N  N1421  1  0.050370  0.615790  0.584000  1.0  -0.1908
  N  N1422  1  0.035320  0.643650  0.575770  1.0  -0.2024
  N  N1423  1  0.179750  0.270540  0.598590  1.0  0.1941
  N  N1424  1  0.215700  0.296920  0.621260  1.0  -0.1823
  N  N1425  1  0.320520  0.549170  0.791070  1.0  0.095
  N  N1426  1  0.320600  0.580180  0.781060  1.0  -0.174
  N  N1427  1  0.302500  0.579030  0.761340  1.0  -0.2067
  N  N1428  1  0.207510  0.266300  0.612580  1.0  -0.224
  N  N1429  1  0.171090  0.446570  0.083390  1.0  0.1104
  N  N1430  1  0.115790  0.449630  0.084000  1.0  -0.1855
  N  N1431  1  0.143650  0.464680  0.075770  1.0  -0.2078
  N  N1432  1  0.770540  0.320250  0.098590  1.0  0.1948
  N  N1433  1  0.796920  0.284300  0.121260  1.0  -0.1837
  N  N1434  1  0.049170  0.179480  0.291070  1.0  0.0965
  N  N1435  1  0.080180  0.179400  0.281060  1.0  -0.1757
  N  N1436  1  0.079030  0.197500  0.261340  1.0  -0.212
  N  N1437  1  0.766300  0.292490  0.112580  1.0  -0.224
  N  N1438  1  0.671090  0.946570  0.583390  1.0  0.1104
  N  N1439  1  0.615790  0.949630  0.584000  1.0  -0.1855
  N  N1440  1  0.643650  0.964680  0.575770  1.0  -0.2078
  N  N1441  1  0.270540  0.820250  0.598590  1.0  0.1948
  N  N1442  1  0.296920  0.784300  0.621260  1.0  -0.1837
  N  N1443  1  0.549170  0.679480  0.791070  1.0  0.0965
  N  N1444  1  0.580180  0.679400  0.781060  1.0  -0.1757
  N  N1445  1  0.579030  0.697500  0.761340  1.0  -0.212
  N  N1446  1  0.266300  0.792490  0.612580  1.0  -0.224
  N  N1447  1  0.828910  0.553430  0.083390  1.0  0.1097
  N  N1448  1  0.884210  0.550370  0.084000  1.0  -0.1989
  N  N1449  1  0.856350  0.535320  0.075770  1.0  -0.2084
  N  N1450  1  0.229460  0.679750  0.098590  1.0  0.1938
  N  N1451  1  0.203080  0.715700  0.121260  1.0  -0.1816
  N  N1452  1  0.950830  0.820520  0.291070  1.0  0.0971
  N  N1453  1  0.919820  0.820600  0.281060  1.0  -0.1717
  N  N1454  1  0.920970  0.802500  0.261340  1.0  -0.2057
  N  N1455  1  0.233700  0.707510  0.112580  1.0  -0.2236
  N  N1456  1  0.328910  0.053430  0.583390  1.0  0.1097
  N  N1457  1  0.384210  0.050370  0.584000  1.0  -0.1989
  N  N1458  1  0.356350  0.035320  0.575770  1.0  -0.2084
  N  N1459  1  0.729460  0.179750  0.598590  1.0  0.1938
  N  N1460  1  0.703080  0.215700  0.621260  1.0  -0.1816
  N  N1461  1  0.450830  0.320520  0.791070  1.0  0.0971
  N  N1462  1  0.419820  0.320600  0.781060  1.0  -0.1717
  N  N1463  1  0.420970  0.302500  0.761340  1.0  -0.2057
  N  N1464  1  0.733700  0.207510  0.612580  1.0  -0.2236
  N  N1465  1  0.553430  0.171090  0.916610  1.0  0.1123
  N  N1466  1  0.550370  0.115790  0.916000  1.0  -0.1897
  N  N1467  1  0.535320  0.143650  0.924230  1.0  -0.2013
  N  N1468  1  0.679750  0.770540  0.901410  1.0  0.1955
  N  N1469  1  0.715700  0.796920  0.878740  1.0  -0.1832
  N  N1470  1  0.820520  0.049170  0.708930  1.0  0.0942
  N  N1471  1  0.820600  0.080180  0.718940  1.0  -0.1747
  N  N1472  1  0.802500  0.079030  0.738660  1.0  -0.2027
  N  N1473  1  0.707510  0.766300  0.887420  1.0  -0.2248
  N  N1474  1  0.053430  0.671090  0.416610  1.0  0.1123
  N  N1475  1  0.050370  0.615790  0.416000  1.0  -0.1897
  N  N1476  1  0.035320  0.643650  0.424230  1.0  -0.2013
  N  N1477  1  0.179750  0.270540  0.401410  1.0  0.1955
  N  N1478  1  0.215700  0.296920  0.378740  1.0  -0.1832
  N  N1479  1  0.320520  0.549170  0.208930  1.0  0.0942
  N  N1480  1  0.320600  0.580180  0.218940  1.0  -0.1747
  N  N1481  1  0.302500  0.579030  0.238660  1.0  -0.2027
  N  N1482  1  0.207510  0.266300  0.387420  1.0  -0.2248
  N  N1483  1  0.446570  0.828910  0.916610  1.0  0.1104
  N  N1484  1  0.449630  0.884210  0.916000  1.0  -0.1923
  N  N1485  1  0.464680  0.856350  0.924230  1.0  -0.2082
  N  N1486  1  0.320250  0.229460  0.901410  1.0  0.1956
  N  N1487  1  0.284300  0.203080  0.878740  1.0  -0.1807
  N  N1488  1  0.179480  0.950830  0.708930  1.0  0.0939
  N  N1489  1  0.179400  0.919820  0.718940  1.0  -0.1731
  N  N1490  1  0.197500  0.920970  0.738660  1.0  -0.2046
  N  N1491  1  0.292490  0.233700  0.887420  1.0  -0.223
  N  N1492  1  0.946570  0.328910  0.416610  1.0  0.1104
  N  N1493  1  0.949630  0.384210  0.416000  1.0  -0.1923
  N  N1494  1  0.964680  0.356350  0.424230  1.0  -0.2082
  N  N1495  1  0.820250  0.729460  0.401410  1.0  0.1956
  N  N1496  1  0.784300  0.703080  0.378740  1.0  -0.1807
  N  N1497  1  0.679480  0.450830  0.208930  1.0  0.0939
  N  N1498  1  0.679400  0.419820  0.218940  1.0  -0.1731
  N  N1499  1  0.697500  0.420970  0.238660  1.0  -0.2046
  N  N1500  1  0.792490  0.733700  0.387420  1.0  -0.223
  N  N1501  1  0.828910  0.553430  0.916610  1.0  0.11
  N  N1502  1  0.884210  0.550370  0.916000  1.0  -0.1967
  N  N1503  1  0.856350  0.535320  0.924230  1.0  -0.206
  N  N1504  1  0.229460  0.679750  0.901410  1.0  0.1951
  N  N1505  1  0.203080  0.715700  0.878740  1.0  -0.1854
  N  N1506  1  0.950830  0.820520  0.708930  1.0  0.0961
  N  N1507  1  0.919820  0.820600  0.718940  1.0  -0.172
  N  N1508  1  0.920970  0.802500  0.738660  1.0  -0.2052
  N  N1509  1  0.233700  0.707510  0.887420  1.0  -0.2236
  N  N1510  1  0.328910  0.053430  0.416610  1.0  0.11
  N  N1511  1  0.384210  0.050370  0.416000  1.0  -0.1967
  N  N1512  1  0.356350  0.035320  0.424230  1.0  -0.206
  N  N1513  1  0.729460  0.179750  0.401410  1.0  0.1951
  N  N1514  1  0.703080  0.215700  0.378740  1.0  -0.1854
  N  N1515  1  0.450830  0.320520  0.208930  1.0  0.0961
  N  N1516  1  0.419820  0.320600  0.218940  1.0  -0.172
  N  N1517  1  0.420970  0.302500  0.238660  1.0  -0.2052
  N  N1518  1  0.733700  0.207510  0.387420  1.0  -0.2236
  N  N1519  1  0.171090  0.446570  0.916610  1.0  0.1106
  N  N1520  1  0.115790  0.449630  0.916000  1.0  -0.1845
  N  N1521  1  0.143650  0.464680  0.924230  1.0  -0.2048
  N  N1522  1  0.770540  0.320250  0.901410  1.0  0.1958
  N  N1523  1  0.796920  0.284300  0.878740  1.0  -0.1825
  N  N1524  1  0.049170  0.179480  0.708930  1.0  0.0954
  N  N1525  1  0.080180  0.179400  0.718940  1.0  -0.1752
  N  N1526  1  0.079030  0.197500  0.738660  1.0  -0.2096
  N  N1527  1  0.766300  0.292490  0.887420  1.0  -0.2238
  N  N1528  1  0.671090  0.946570  0.416610  1.0  0.1106
  N  N1529  1  0.615790  0.949630  0.416000  1.0  -0.1845
  N  N1530  1  0.643650  0.964680  0.424230  1.0  -0.2048
  N  N1531  1  0.270540  0.820250  0.401410  1.0  0.1958
  N  N1532  1  0.296920  0.784300  0.378740  1.0  -0.1825
  N  N1533  1  0.549170  0.679480  0.208930  1.0  0.0954
  N  N1534  1  0.580180  0.679400  0.218940  1.0  -0.1752
  N  N1535  1  0.579030  0.697500  0.238660  1.0  -0.2096
  N  N1536  1  0.266300  0.792490  0.387420  1.0  -0.2238
  O  O1537  1  0.381110  0.704230  0.164020  1.0  -0.6524
  O  O1538  1  0.446670  0.594480  0.074310  1.0  -0.6361
  O  O1539  1  0.418910  0.707520  0.115290  1.0  -0.5654
  O  O1540  1  0.519020  0.717970  0.025330  1.0  -0.5607
  O  O1541  1  0.441890  0.671650  0.087570  1.0  -0.5648
  O  O1542  1  0.532590  0.775200  0.024940  1.0  -0.5487
  O  O1543  1  0.411810  0.301370  0.025220  1.0  -0.5616
  O  O1544  1  0.398200  0.244800  0.025540  1.0  -0.574
  O  O1545  1  0.127750  0.032450  0.377420  1.0  -0.5698
  O  O1546  1  0.364890  0.379590  0.086900  1.0  -0.5559
  O  O1547  1  0.331100  0.357810  0.116650  1.0  -0.549
  O  O1548  1  0.095200  0.909250  0.378010  1.0  -0.566
  O  O1549  1  0.165140  0.052020  0.349380  1.0  -0.5636
  O  O1550  1  0.113840  0.873570  0.348590  1.0  -0.5666
  O  O1551  1  0.881110  0.204230  0.664020  1.0  -0.6524
  O  O1552  1  0.946670  0.094480  0.574310  1.0  -0.6361
  O  O1553  1  0.918910  0.207520  0.615290  1.0  -0.5654
  O  O1554  1  0.019020  0.217970  0.525330  1.0  -0.5607
  O  O1555  1  0.941890  0.171650  0.587570  1.0  -0.5648
  O  O1556  1  0.032590  0.275200  0.524940  1.0  -0.5487
  O  O1557  1  0.911810  0.801370  0.525220  1.0  -0.5616
  O  O1558  1  0.898200  0.744800  0.525540  1.0  -0.574
  O  O1559  1  0.627750  0.532450  0.877420  1.0  -0.5698
  O  O1560  1  0.864890  0.879590  0.586900  1.0  -0.5559
  O  O1561  1  0.831100  0.857810  0.616650  1.0  -0.549
  O  O1562  1  0.595200  0.409250  0.878010  1.0  -0.566
  O  O1563  1  0.665140  0.552020  0.849380  1.0  -0.5636
  O  O1564  1  0.613840  0.373570  0.848590  1.0  -0.5666
  O  O1565  1  0.618890  0.295770  0.164020  1.0  -0.6517
  O  O1566  1  0.553330  0.405520  0.074310  1.0  -0.6369
  O  O1567  1  0.581090  0.292480  0.115290  1.0  -0.5669
  O  O1568  1  0.480980  0.282030  0.025330  1.0  -0.5598
  O  O1569  1  0.558110  0.328350  0.087570  1.0  -0.5634
  O  O1570  1  0.467410  0.224800  0.024940  1.0  -0.5498
  O  O1571  1  0.588190  0.698630  0.025220  1.0  -0.5616
  O  O1572  1  0.601800  0.755200  0.025540  1.0  -0.5733
  O  O1573  1  0.872250  0.967550  0.377420  1.0  -0.5699
  O  O1574  1  0.635110  0.620410  0.086900  1.0  -0.5567
  O  O1575  1  0.668900  0.642190  0.116650  1.0  -0.5491
  O  O1576  1  0.904800  0.090750  0.378010  1.0  -0.5661
  O  O1577  1  0.834860  0.947980  0.349380  1.0  -0.5643
  O  O1578  1  0.886160  0.126430  0.348590  1.0  -0.5654
  O  O1579  1  0.118890  0.795770  0.664020  1.0  -0.6517
  O  O1580  1  0.053330  0.905520  0.574310  1.0  -0.6369
  O  O1581  1  0.081090  0.792480  0.615290  1.0  -0.5669
  O  O1582  1  0.980980  0.782030  0.525330  1.0  -0.5598
  O  O1583  1  0.058110  0.828350  0.587570  1.0  -0.5634
  O  O1584  1  0.967410  0.724800  0.524940  1.0  -0.5498
  O  O1585  1  0.088190  0.198630  0.525220  1.0  -0.5616
  O  O1586  1  0.101800  0.255200  0.525540  1.0  -0.5733
  O  O1587  1  0.372250  0.467550  0.877420  1.0  -0.5699
  O  O1588  1  0.135110  0.120410  0.586900  1.0  -0.5567
  O  O1589  1  0.168900  0.142190  0.616650  1.0  -0.5491
  O  O1590  1  0.404800  0.590750  0.878010  1.0  -0.5661
  O  O1591  1  0.334860  0.447980  0.849380  1.0  -0.5643
  O  O1592  1  0.386160  0.626430  0.848590  1.0  -0.5654
  O  O1593  1  0.295770  0.381110  0.164020  1.0  -0.6553
  O  O1594  1  0.405520  0.446670  0.074310  1.0  -0.6305
  O  O1595  1  0.292480  0.418910  0.115290  1.0  -0.5656
  O  O1596  1  0.282030  0.519020  0.025330  1.0  -0.5612
  O  O1597  1  0.328350  0.441890  0.087570  1.0  -0.5647
  O  O1598  1  0.224800  0.532590  0.024940  1.0  -0.5506
  O  O1599  1  0.698630  0.411810  0.025220  1.0  -0.5619
  O  O1600  1  0.755200  0.398200  0.025540  1.0  -0.5743
  O  O1601  1  0.967550  0.127750  0.377420  1.0  -0.5697
  O  O1602  1  0.620410  0.364890  0.086900  1.0  -0.5541
  O  O1603  1  0.642190  0.331100  0.116650  1.0  -0.5504
  O  O1604  1  0.090750  0.095200  0.378010  1.0  -0.5672
  O  O1605  1  0.947980  0.165140  0.349380  1.0  -0.5618
  O  O1606  1  0.126430  0.113840  0.348590  1.0  -0.5667
  O  O1607  1  0.795770  0.881110  0.664020  1.0  -0.6553
  O  O1608  1  0.905520  0.946670  0.574310  1.0  -0.6305
  O  O1609  1  0.792480  0.918910  0.615290  1.0  -0.5656
  O  O1610  1  0.782030  0.019020  0.525330  1.0  -0.5612
  O  O1611  1  0.828350  0.941890  0.587570  1.0  -0.5647
  O  O1612  1  0.724800  0.032590  0.524940  1.0  -0.5506
  O  O1613  1  0.198630  0.911810  0.525220  1.0  -0.5619
  O  O1614  1  0.255200  0.898200  0.525540  1.0  -0.5743
  O  O1615  1  0.467550  0.627750  0.877420  1.0  -0.5697
  O  O1616  1  0.120410  0.864890  0.586900  1.0  -0.5541
  O  O1617  1  0.142190  0.831100  0.616650  1.0  -0.5504
  O  O1618  1  0.590750  0.595200  0.878010  1.0  -0.5672
  O  O1619  1  0.447980  0.665140  0.849380  1.0  -0.5618
  O  O1620  1  0.626430  0.613840  0.848590  1.0  -0.5667
  O  O1621  1  0.704230  0.618890  0.164020  1.0  -0.6443
  O  O1622  1  0.594480  0.553330  0.074310  1.0  -0.6377
  O  O1623  1  0.707520  0.581090  0.115290  1.0  -0.5669
  O  O1624  1  0.717970  0.480980  0.025330  1.0  -0.5603
  O  O1625  1  0.671650  0.558110  0.087570  1.0  -0.5639
  O  O1626  1  0.775200  0.467410  0.024940  1.0  -0.5509
  O  O1627  1  0.301370  0.588190  0.025220  1.0  -0.562
  O  O1628  1  0.244800  0.601800  0.025540  1.0  -0.5738
  O  O1629  1  0.032450  0.872250  0.377420  1.0  -0.5696
  O  O1630  1  0.379590  0.635110  0.086900  1.0  -0.554
  O  O1631  1  0.357810  0.668900  0.116650  1.0  -0.5492
  O  O1632  1  0.909250  0.904800  0.378010  1.0  -0.5671
  O  O1633  1  0.052020  0.834860  0.349380  1.0  -0.5625
  O  O1634  1  0.873570  0.886160  0.348590  1.0  -0.5663
  O  O1635  1  0.204230  0.118890  0.664020  1.0  -0.6443
  O  O1636  1  0.094480  0.053330  0.574310  1.0  -0.6377
  O  O1637  1  0.207520  0.081090  0.615290  1.0  -0.5669
  O  O1638  1  0.217970  0.980980  0.525330  1.0  -0.5603
  O  O1639  1  0.171650  0.058110  0.587570  1.0  -0.5639
  O  O1640  1  0.275200  0.967410  0.524940  1.0  -0.5509
  O  O1641  1  0.801370  0.088190  0.525220  1.0  -0.562
  O  O1642  1  0.744800  0.101800  0.525540  1.0  -0.5738
  O  O1643  1  0.532450  0.372250  0.877420  1.0  -0.5696
  O  O1644  1  0.879590  0.135110  0.586900  1.0  -0.554
  O  O1645  1  0.857810  0.168900  0.616650  1.0  -0.5492
  O  O1646  1  0.409250  0.404800  0.878010  1.0  -0.5671
  O  O1647  1  0.552020  0.334860  0.849380  1.0  -0.5625
  O  O1648  1  0.373570  0.386160  0.848590  1.0  -0.5663
  O  O1649  1  0.618890  0.295770  0.835980  1.0  -0.6483
  O  O1650  1  0.553330  0.405520  0.925690  1.0  -0.6365
  O  O1651  1  0.581090  0.292480  0.884710  1.0  -0.5667
  O  O1652  1  0.480980  0.282030  0.974670  1.0  -0.5604
  O  O1653  1  0.558110  0.328350  0.912430  1.0  -0.5646
  O  O1654  1  0.467410  0.224800  0.975060  1.0  -0.5498
  O  O1655  1  0.588190  0.698630  0.974780  1.0  -0.5613
  O  O1656  1  0.601800  0.755200  0.974460  1.0  -0.5736
  O  O1657  1  0.872250  0.967550  0.622580  1.0  -0.5693
  O  O1658  1  0.635110  0.620410  0.913100  1.0  -0.5564
  O  O1659  1  0.668900  0.642190  0.883350  1.0  -0.5488
  O  O1660  1  0.904800  0.090750  0.621990  1.0  -0.5664
  O  O1661  1  0.834860  0.947980  0.650620  1.0  -0.565
  O  O1662  1  0.886160  0.126430  0.651410  1.0  -0.5653
  O  O1663  1  0.118890  0.795770  0.335980  1.0  -0.6483
  O  O1664  1  0.053330  0.905520  0.425690  1.0  -0.6365
  O  O1665  1  0.081090  0.792480  0.384710  1.0  -0.5667
  O  O1666  1  0.980980  0.782030  0.474670  1.0  -0.5604
  O  O1667  1  0.058110  0.828350  0.412430  1.0  -0.5646
  O  O1668  1  0.967410  0.724800  0.475060  1.0  -0.5498
  O  O1669  1  0.088190  0.198630  0.474780  1.0  -0.5613
  O  O1670  1  0.101800  0.255200  0.474460  1.0  -0.5736
  O  O1671  1  0.372250  0.467550  0.122580  1.0  -0.5693
  O  O1672  1  0.135110  0.120410  0.413100  1.0  -0.5564
  O  O1673  1  0.168900  0.142190  0.383350  1.0  -0.5488
  O  O1674  1  0.404800  0.590750  0.121990  1.0  -0.5664
  O  O1675  1  0.334860  0.447980  0.150620  1.0  -0.565
  O  O1676  1  0.386160  0.626430  0.151410  1.0  -0.5653
  O  O1677  1  0.381110  0.704230  0.835980  1.0  -0.6514
  O  O1678  1  0.446670  0.594480  0.925690  1.0  -0.6377
  O  O1679  1  0.418910  0.707520  0.884710  1.0  -0.5652
  O  O1680  1  0.519020  0.717970  0.974670  1.0  -0.5607
  O  O1681  1  0.441890  0.671650  0.912430  1.0  -0.566
  O  O1682  1  0.532590  0.775200  0.975060  1.0  -0.5487
  O  O1683  1  0.411810  0.301370  0.974780  1.0  -0.5613
  O  O1684  1  0.398200  0.244800  0.974460  1.0  -0.5736
  O  O1685  1  0.127750  0.032450  0.622580  1.0  -0.5694
  O  O1686  1  0.364890  0.379590  0.913100  1.0  -0.5544
  O  O1687  1  0.331100  0.357810  0.883350  1.0  -0.5484
  O  O1688  1  0.095200  0.909250  0.621990  1.0  -0.5661
  O  O1689  1  0.165140  0.052020  0.650620  1.0  -0.5636
  O  O1690  1  0.113840  0.873570  0.651410  1.0  -0.5654
  O  O1691  1  0.881110  0.204230  0.335980  1.0  -0.6514
  O  O1692  1  0.946670  0.094480  0.425690  1.0  -0.6377
  O  O1693  1  0.918910  0.207520  0.384710  1.0  -0.5652
  O  O1694  1  0.019020  0.217970  0.474670  1.0  -0.5607
  O  O1695  1  0.941890  0.171650  0.412430  1.0  -0.566
  O  O1696  1  0.032590  0.275200  0.475060  1.0  -0.5487
  O  O1697  1  0.911810  0.801370  0.474780  1.0  -0.5613
  O  O1698  1  0.898200  0.744800  0.474460  1.0  -0.5736
  O  O1699  1  0.627750  0.532450  0.122580  1.0  -0.5694
  O  O1700  1  0.864890  0.879590  0.413100  1.0  -0.5544
  O  O1701  1  0.831100  0.857810  0.383350  1.0  -0.5484
  O  O1702  1  0.595200  0.409250  0.121990  1.0  -0.5661
  O  O1703  1  0.665140  0.552020  0.150620  1.0  -0.5636
  O  O1704  1  0.613840  0.373570  0.151410  1.0  -0.5654
  O  O1705  1  0.704230  0.618890  0.835980  1.0  -0.6428
  O  O1706  1  0.594480  0.553330  0.925690  1.0  -0.6366
  O  O1707  1  0.707520  0.581090  0.884710  1.0  -0.566
  O  O1708  1  0.717970  0.480980  0.974670  1.0  -0.561
  O  O1709  1  0.671650  0.558110  0.912430  1.0  -0.5649
  O  O1710  1  0.775200  0.467410  0.975060  1.0  -0.551
  O  O1711  1  0.301370  0.588190  0.974780  1.0  -0.5619
  O  O1712  1  0.244800  0.601800  0.974460  1.0  -0.5742
  O  O1713  1  0.032450  0.872250  0.622580  1.0  -0.5689
  O  O1714  1  0.379590  0.635110  0.913100  1.0  -0.5532
  O  O1715  1  0.357810  0.668900  0.883350  1.0  -0.5484
  O  O1716  1  0.909250  0.904800  0.621990  1.0  -0.5666
  O  O1717  1  0.052020  0.834860  0.650620  1.0  -0.5625
  O  O1718  1  0.873570  0.886160  0.651410  1.0  -0.5662
  O  O1719  1  0.204230  0.118890  0.335980  1.0  -0.6428
  O  O1720  1  0.094480  0.053330  0.425690  1.0  -0.6366
  O  O1721  1  0.207520  0.081090  0.384710  1.0  -0.566
  O  O1722  1  0.217970  0.980980  0.474670  1.0  -0.561
  O  O1723  1  0.171650  0.058110  0.412430  1.0  -0.5649
  O  O1724  1  0.275200  0.967410  0.475060  1.0  -0.551
  O  O1725  1  0.801370  0.088190  0.474780  1.0  -0.5619
  O  O1726  1  0.744800  0.101800  0.474460  1.0  -0.5742
  O  O1727  1  0.532450  0.372250  0.122580  1.0  -0.5689
  O  O1728  1  0.879590  0.135110  0.413100  1.0  -0.5532
  O  O1729  1  0.857810  0.168900  0.383350  1.0  -0.5484
  O  O1730  1  0.409250  0.404800  0.121990  1.0  -0.5666
  O  O1731  1  0.552020  0.334860  0.150620  1.0  -0.5625
  O  O1732  1  0.373570  0.386160  0.151410  1.0  -0.5662
  O  O1733  1  0.295770  0.381110  0.835980  1.0  -0.6543
  O  O1734  1  0.405520  0.446670  0.925690  1.0  -0.6314
  O  O1735  1  0.292480  0.418910  0.884710  1.0  -0.5657
  O  O1736  1  0.282030  0.519020  0.974670  1.0  -0.5613
  O  O1737  1  0.328350  0.441890  0.912430  1.0  -0.5656
  O  O1738  1  0.224800  0.532590  0.975060  1.0  -0.5504
  O  O1739  1  0.698630  0.411810  0.974780  1.0  -0.5616
  O  O1740  1  0.755200  0.398200  0.974460  1.0  -0.5743
  O  O1741  1  0.967550  0.127750  0.622580  1.0  -0.5694
  O  O1742  1  0.620410  0.364890  0.913100  1.0  -0.5537
  O  O1743  1  0.642190  0.331100  0.883350  1.0  -0.5493
  O  O1744  1  0.090750  0.095200  0.621990  1.0  -0.5682
  O  O1745  1  0.947980  0.165140  0.650620  1.0  -0.5624
  O  O1746  1  0.126430  0.113840  0.651410  1.0  -0.566
  O  O1747  1  0.795770  0.881110  0.335980  1.0  -0.6543
  O  O1748  1  0.905520  0.946670  0.425690  1.0  -0.6314
  O  O1749  1  0.792480  0.918910  0.384710  1.0  -0.5657
  O  O1750  1  0.782030  0.019020  0.474670  1.0  -0.5613
  O  O1751  1  0.828350  0.941890  0.412430  1.0  -0.5656
  O  O1752  1  0.724800  0.032590  0.475060  1.0  -0.5504
  O  O1753  1  0.198630  0.911810  0.474780  1.0  -0.5616
  O  O1754  1  0.255200  0.898200  0.474460  1.0  -0.5743
  O  O1755  1  0.467550  0.627750  0.122580  1.0  -0.5694
  O  O1756  1  0.120410  0.864890  0.413100  1.0  -0.5537
  O  O1757  1  0.142190  0.831100  0.383350  1.0  -0.5493
  O  O1758  1  0.590750  0.595200  0.121990  1.0  -0.5682
  O  O1759  1  0.447980  0.665140  0.150620  1.0  -0.5624
  O  O1760  1  0.626430  0.613840  0.151410  1.0  -0.566
