# generated using pymatgen
data_Zn3H17C36N9O14
_symmetry_space_group_name_H-M   'P 1'
_cell_length_a   31.42060000
_cell_length_b   31.42060000
_cell_length_c   44.82390000
_cell_angle_alpha   90.00000000
_cell_angle_beta   90.00000000
_cell_angle_gamma   90.00000000
_symmetry_Int_Tables_number   1
_chemical_formula_structural   Zn3H17C36N9O14
_chemical_formula_sum   'Zn48 H272 C576 N144 O224'
_cell_volume   44252.57924842
_cell_formula_units_Z   16
loop_
 _symmetry_equiv_pos_site_id
 _symmetry_equiv_pos_as_xyz
  1  'x, y, z'
loop_
 _atom_site_type_symbol
 _atom_site_label
 _atom_site_symmetry_multiplicity
 _atom_site_fract_x
 _atom_site_fract_y
 _atom_site_fract_z
 _atom_site_occupancy
 _atom_site_charge
  Zn  Zn1  1  0.640120  0.694100  0.332380  1.0  1.0439
  Zn  Zn2  1  0.605060  0.645920  0.373910  1.0  1.0631
  Zn  Zn3  1  0.140120  0.194100  0.832380  1.0  1.0439
  Zn  Zn4  1  0.105060  0.145920  0.873910  1.0  1.0631
  Zn  Zn5  1  0.359880  0.305900  0.332380  1.0  1.0456
  Zn  Zn6  1  0.394940  0.354080  0.373910  1.0  1.061
  Zn  Zn7  1  0.859880  0.805900  0.832380  1.0  1.0456
  Zn  Zn8  1  0.894940  0.854080  0.873910  1.0  1.061
  Zn  Zn9  1  0.305900  0.640120  0.332380  1.0  1.046
  Zn  Zn10  1  0.354080  0.605060  0.373910  1.0  1.0612
  Zn  Zn11  1  0.805900  0.140120  0.832380  1.0  1.046
  Zn  Zn12  1  0.854080  0.105060  0.873910  1.0  1.0612
  Zn  Zn13  1  0.694100  0.359880  0.332380  1.0  1.044
  Zn  Zn14  1  0.645920  0.394940  0.373910  1.0  1.0619
  Zn  Zn15  1  0.194100  0.859880  0.832380  1.0  1.044
  Zn  Zn16  1  0.145920  0.894940  0.873910  1.0  1.0619
  Zn  Zn17  1  0.359880  0.305900  0.667620  1.0  1.0455
  Zn  Zn18  1  0.394940  0.354080  0.626090  1.0  1.0614
  Zn  Zn19  1  0.859880  0.805900  0.167620  1.0  1.0455
  Zn  Zn20  1  0.894940  0.854080  0.126090  1.0  1.0614
  Zn  Zn21  1  0.640120  0.694100  0.667620  1.0  1.0426
  Zn  Zn22  1  0.605060  0.645920  0.626090  1.0  1.0638
  Zn  Zn23  1  0.140120  0.194100  0.167620  1.0  1.0426
  Zn  Zn24  1  0.105060  0.145920  0.126090  1.0  1.0638
  Zn  Zn25  1  0.694100  0.359880  0.667620  1.0  1.0435
  Zn  Zn26  1  0.645920  0.394940  0.626090  1.0  1.0636
  Zn  Zn27  1  0.194100  0.859880  0.167620  1.0  1.0435
  Zn  Zn28  1  0.145920  0.894940  0.126090  1.0  1.0636
  Zn  Zn29  1  0.305900  0.640120  0.667620  1.0  1.0452
  Zn  Zn30  1  0.354080  0.605060  0.626090  1.0  1.0608
  Zn  Zn31  1  0.805900  0.140120  0.167620  1.0  1.0452
  Zn  Zn32  1  0.854080  0.105060  0.126090  1.0  1.0608
  Zn  Zn33  1  0.751370  0.538880  0.500000  1.0  1.0414
  Zn  Zn34  1  0.834530  0.551120  0.500000  1.0  1.0484
  Zn  Zn35  1  0.251370  0.038880  0.000000  1.0  1.0414
  Zn  Zn36  1  0.334530  0.051120  0.000000  1.0  1.0484
  Zn  Zn37  1  0.248630  0.461120  0.500000  1.0  1.0439
  Zn  Zn38  1  0.165470  0.448880  0.500000  1.0  1.045
  Zn  Zn39  1  0.748630  0.961120  0.000000  1.0  1.0439
  Zn  Zn40  1  0.665470  0.948880  0.000000  1.0  1.045
  Zn  Zn41  1  0.461120  0.751370  0.500000  1.0  1.0428
  Zn  Zn42  1  0.448880  0.834530  0.500000  1.0  1.0468
  Zn  Zn43  1  0.961120  0.251370  0.000000  1.0  1.0428
  Zn  Zn44  1  0.948880  0.334530  0.000000  1.0  1.0468
  Zn  Zn45  1  0.538880  0.248630  0.500000  1.0  1.0415
  Zn  Zn46  1  0.551120  0.165470  0.500000  1.0  1.0467
  Zn  Zn47  1  0.038880  0.748630  0.000000  1.0  1.0415
  Zn  Zn48  1  0.051120  0.665470  0.000000  1.0  1.0467
  H  H49  1  0.553900  0.597100  0.401300  1.0  0.5012
  H  H50  1  0.686100  0.721300  0.290000  1.0  0.4947
  H  H51  1  0.714900  0.623900  0.429400  1.0  0.1122
  H  H52  1  0.768800  0.692700  0.363800  1.0  0.1095
  H  H53  1  0.841900  0.639800  0.427500  1.0  0.1124
  H  H54  1  0.899200  0.652200  0.393800  1.0  0.1079
  H  H55  1  0.953000  0.733200  0.318500  1.0  0.1124
  H  H56  1  0.973700  0.652500  0.386500  1.0  0.1105
  H  H57  1  0.070700  0.689500  0.334500  1.0  0.1091
  H  H58  1  0.980300  0.759500  0.272200  1.0  0.1116
  H  H59  1  0.115100  0.647000  0.364600  1.0  0.1106
  H  H60  1  0.969600  0.789500  0.225100  1.0  0.1168
  H  H61  1  0.095600  0.812100  0.225100  1.0  0.1133
  H  H62  1  0.129200  0.548700  0.437900  1.0  0.1148
  H  H63  1  0.256200  0.549000  0.427400  1.0  0.1128
  H  H64  1  0.022800  0.857900  0.158900  1.0  0.1051
  H  H65  1  0.182700  0.621400  0.374400  1.0  0.1169
  H  H66  1  0.053900  0.097100  0.901300  1.0  0.5012
  H  H67  1  0.186100  0.221300  0.790000  1.0  0.4947
  H  H68  1  0.214900  0.123900  0.929400  1.0  0.1122
  H  H69  1  0.268800  0.192700  0.863800  1.0  0.1095
  H  H70  1  0.341900  0.139800  0.927500  1.0  0.1124
  H  H71  1  0.399200  0.152200  0.893800  1.0  0.1079
  H  H72  1  0.453000  0.233200  0.818500  1.0  0.1111
  H  H73  1  0.473700  0.152500  0.886500  1.0  0.1105
  H  H74  1  0.570700  0.189500  0.834500  1.0  0.1091
  H  H75  1  0.480300  0.259500  0.772200  1.0  0.1116
  H  H76  1  0.615100  0.147000  0.864600  1.0  0.1106
  H  H77  1  0.469600  0.289500  0.725100  1.0  0.1168
  H  H78  1  0.595600  0.312100  0.725100  1.0  0.1133
  H  H79  1  0.629200  0.048700  0.937900  1.0  0.1148
  H  H80  1  0.756200  0.049000  0.927400  1.0  0.1128
  H  H81  1  0.522800  0.357900  0.658900  1.0  0.1051
  H  H82  1  0.682700  0.121400  0.874400  1.0  0.1169
  H  H83  1  0.446100  0.402900  0.401300  1.0  0.4995
  H  H84  1  0.313900  0.278700  0.290000  1.0  0.4975
  H  H85  1  0.285100  0.376100  0.429400  1.0  0.1123
  H  H86  1  0.231200  0.307300  0.363800  1.0  0.1093
  H  H87  1  0.158100  0.360200  0.427500  1.0  0.1122
  H  H88  1  0.100800  0.347800  0.393800  1.0  0.1082
  H  H89  1  0.047000  0.266800  0.318500  1.0  0.1122
  H  H90  1  0.026300  0.347500  0.386500  1.0  0.1104
  H  H91  1  0.929300  0.310500  0.334500  1.0  0.1104
  H  H92  1  0.019700  0.240500  0.272200  1.0  0.1107
  H  H93  1  0.884900  0.353000  0.364600  1.0  0.1109
  H  H94  1  0.030400  0.210500  0.225100  1.0  0.1164
  H  H95  1  0.904400  0.187900  0.225100  1.0  0.1128
  H  H96  1  0.870800  0.451300  0.437900  1.0  0.1152
  H  H97  1  0.743800  0.451000  0.427400  1.0  0.1128
  H  H98  1  0.977200  0.142100  0.158900  1.0  0.105
  H  H99  1  0.817300  0.378600  0.374400  1.0  0.117
  H  H100  1  0.946100  0.902900  0.901300  1.0  0.4995
  H  H101  1  0.813900  0.778700  0.790000  1.0  0.4975
  H  H102  1  0.785100  0.876100  0.929400  1.0  0.1123
  H  H103  1  0.731200  0.807300  0.863800  1.0  0.1093
  H  H104  1  0.658100  0.860200  0.927500  1.0  0.1122
  H  H105  1  0.600800  0.847800  0.893800  1.0  0.1082
  H  H106  1  0.547000  0.766800  0.818500  1.0  0.1105
  H  H107  1  0.526300  0.847500  0.886500  1.0  0.1104
  H  H108  1  0.429300  0.810500  0.834500  1.0  0.1104
  H  H109  1  0.519700  0.740500  0.772200  1.0  0.1107
  H  H110  1  0.384900  0.853000  0.864600  1.0  0.1109
  H  H111  1  0.530400  0.710500  0.725100  1.0  0.1164
  H  H112  1  0.404400  0.687900  0.725100  1.0  0.1128
  H  H113  1  0.370800  0.951300  0.937900  1.0  0.1152
  H  H114  1  0.243800  0.951000  0.927400  1.0  0.1128
  H  H115  1  0.477200  0.642100  0.658900  1.0  0.105
  H  H116  1  0.317300  0.878600  0.874400  1.0  0.117
  H  H117  1  0.402900  0.553900  0.401300  1.0  0.5048
  H  H118  1  0.278700  0.686100  0.290000  1.0  0.4947
  H  H119  1  0.376100  0.714900  0.429400  1.0  0.1126
  H  H120  1  0.307300  0.768800  0.363800  1.0  0.1095
  H  H121  1  0.360200  0.841900  0.427500  1.0  0.1123
  H  H122  1  0.347800  0.899200  0.393800  1.0  0.1082
  H  H123  1  0.266800  0.953000  0.318500  1.0  0.1124
  H  H124  1  0.347500  0.973700  0.386500  1.0  0.1101
  H  H125  1  0.310500  0.070700  0.334500  1.0  0.1083
  H  H126  1  0.240500  0.980300  0.272200  1.0  0.1106
  H  H127  1  0.353000  0.115100  0.364600  1.0  0.1107
  H  H128  1  0.210500  0.969600  0.225100  1.0  0.1167
  H  H129  1  0.187900  0.095600  0.225100  1.0  0.1134
  H  H130  1  0.451300  0.129200  0.437900  1.0  0.1154
  H  H131  1  0.451000  0.256200  0.427400  1.0  0.1136
  H  H132  1  0.142100  0.022800  0.158900  1.0  0.1046
  H  H133  1  0.378600  0.182700  0.374400  1.0  0.1173
  H  H134  1  0.902900  0.053900  0.901300  1.0  0.5048
  H  H135  1  0.778700  0.186100  0.790000  1.0  0.4947
  H  H136  1  0.876100  0.214900  0.929400  1.0  0.1126
  H  H137  1  0.807300  0.268800  0.863800  1.0  0.1095
  H  H138  1  0.860200  0.341900  0.927500  1.0  0.1123
  H  H139  1  0.847800  0.399200  0.893800  1.0  0.1082
  H  H140  1  0.766800  0.453000  0.818500  1.0  0.1112
  H  H141  1  0.847500  0.473700  0.886500  1.0  0.1101
  H  H142  1  0.810500  0.570700  0.834500  1.0  0.1083
  H  H143  1  0.740500  0.480300  0.772200  1.0  0.1106
  H  H144  1  0.853000  0.615100  0.864600  1.0  0.1107
  H  H145  1  0.710500  0.469600  0.725100  1.0  0.1167
  H  H146  1  0.687900  0.595600  0.725100  1.0  0.1134
  H  H147  1  0.951300  0.629200  0.937900  1.0  0.1154
  H  H148  1  0.951000  0.756200  0.927400  1.0  0.1136
  H  H149  1  0.642100  0.522800  0.658900  1.0  0.1046
  H  H150  1  0.878600  0.682700  0.874400  1.0  0.1173
  H  H151  1  0.597100  0.446100  0.401300  1.0  0.5012
  H  H152  1  0.721300  0.313900  0.290000  1.0  0.4957
  H  H153  1  0.623900  0.285100  0.429400  1.0  0.1126
  H  H154  1  0.692700  0.231200  0.363800  1.0  0.1102
  H  H155  1  0.639800  0.158100  0.427500  1.0  0.1125
  H  H156  1  0.652200  0.100800  0.393800  1.0  0.1082
  H  H157  1  0.733200  0.047000  0.318500  1.0  0.1128
  H  H158  1  0.652500  0.026300  0.386500  1.0  0.1114
  H  H159  1  0.689500  0.929300  0.334500  1.0  0.1086
  H  H160  1  0.759500  0.019700  0.272200  1.0  0.1098
  H  H161  1  0.647000  0.884900  0.364600  1.0  0.11
  H  H162  1  0.789500  0.030400  0.225100  1.0  0.1165
  H  H163  1  0.812100  0.904400  0.225100  1.0  0.1137
  H  H164  1  0.548700  0.870800  0.437900  1.0  0.1155
  H  H165  1  0.549000  0.743800  0.427400  1.0  0.1134
  H  H166  1  0.857900  0.977200  0.158900  1.0  0.1046
  H  H167  1  0.621400  0.817300  0.374400  1.0  0.1172
  H  H168  1  0.097100  0.946100  0.901300  1.0  0.5012
  H  H169  1  0.221300  0.813900  0.790000  1.0  0.4957
  H  H170  1  0.123900  0.785100  0.929400  1.0  0.1126
  H  H171  1  0.192700  0.731200  0.863800  1.0  0.1102
  H  H172  1  0.139800  0.658100  0.927500  1.0  0.1125
  H  H173  1  0.152200  0.600800  0.893800  1.0  0.1082
  H  H174  1  0.233200  0.547000  0.818500  1.0  0.1109
  H  H175  1  0.152500  0.526300  0.886500  1.0  0.1114
  H  H176  1  0.189500  0.429300  0.834500  1.0  0.1086
  H  H177  1  0.259500  0.519700  0.772200  1.0  0.1098
  H  H178  1  0.147000  0.384900  0.864600  1.0  0.11
  H  H179  1  0.289500  0.530400  0.725100  1.0  0.1165
  H  H180  1  0.312100  0.404400  0.725100  1.0  0.1137
  H  H181  1  0.048700  0.370800  0.937900  1.0  0.1155
  H  H182  1  0.049000  0.243800  0.927400  1.0  0.1134
  H  H183  1  0.357900  0.477200  0.658900  1.0  0.1046
  H  H184  1  0.121400  0.317300  0.874400  1.0  0.1172
  H  H185  1  0.446100  0.402900  0.598700  1.0  0.5004
  H  H186  1  0.313900  0.278700  0.710000  1.0  0.4998
  H  H187  1  0.285100  0.376100  0.570600  1.0  0.1123
  H  H188  1  0.231200  0.307300  0.636200  1.0  0.1092
  H  H189  1  0.158100  0.360200  0.572500  1.0  0.1126
  H  H190  1  0.100800  0.347800  0.606200  1.0  0.1082
  H  H191  1  0.047000  0.266800  0.681500  1.0  0.1125
  H  H192  1  0.026300  0.347500  0.613500  1.0  0.11
  H  H193  1  0.929300  0.310500  0.665500  1.0  0.1102
  H  H194  1  0.019700  0.240500  0.727800  1.0  0.1104
  H  H195  1  0.884900  0.353000  0.635400  1.0  0.1114
  H  H196  1  0.030400  0.210500  0.774900  1.0  0.1163
  H  H197  1  0.904400  0.187900  0.774900  1.0  0.1133
  H  H198  1  0.870800  0.451300  0.562100  1.0  0.1149
  H  H199  1  0.743800  0.451000  0.572600  1.0  0.1131
  H  H200  1  0.977200  0.142100  0.841100  1.0  0.1052
  H  H201  1  0.817300  0.378600  0.625600  1.0  0.1172
  H  H202  1  0.946100  0.902900  0.098700  1.0  0.5004
  H  H203  1  0.813900  0.778700  0.210000  1.0  0.4998
  H  H204  1  0.785100  0.876100  0.070600  1.0  0.1123
  H  H205  1  0.731200  0.807300  0.136200  1.0  0.1092
  H  H206  1  0.658100  0.860200  0.072500  1.0  0.1126
  H  H207  1  0.600800  0.847800  0.106200  1.0  0.1082
  H  H208  1  0.547000  0.766800  0.181500  1.0  0.1105
  H  H209  1  0.526300  0.847500  0.113500  1.0  0.11
  H  H210  1  0.429300  0.810500  0.165500  1.0  0.1102
  H  H211  1  0.519700  0.740500  0.227800  1.0  0.1104
  H  H212  1  0.384900  0.853000  0.135400  1.0  0.1114
  H  H213  1  0.530400  0.710500  0.274900  1.0  0.1163
  H  H214  1  0.404400  0.687900  0.274900  1.0  0.1133
  H  H215  1  0.370800  0.951300  0.062100  1.0  0.1149
  H  H216  1  0.243800  0.951000  0.072600  1.0  0.1131
  H  H217  1  0.477200  0.642100  0.341100  1.0  0.1052
  H  H218  1  0.317300  0.878600  0.125600  1.0  0.1172
  H  H219  1  0.553900  0.597100  0.598700  1.0  0.5018
  H  H220  1  0.686100  0.721300  0.710000  1.0  0.4974
  H  H221  1  0.714900  0.623900  0.570600  1.0  0.1118
  H  H222  1  0.768800  0.692700  0.636200  1.0  0.1094
  H  H223  1  0.841900  0.639800  0.572500  1.0  0.1125
  H  H224  1  0.899200  0.652200  0.606200  1.0  0.1079
  H  H225  1  0.953000  0.733200  0.681500  1.0  0.1127
  H  H226  1  0.973700  0.652500  0.613500  1.0  0.1103
  H  H227  1  0.070700  0.689500  0.665500  1.0  0.1091
  H  H228  1  0.980300  0.759500  0.727800  1.0  0.1114
  H  H229  1  0.115100  0.647000  0.635400  1.0  0.1108
  H  H230  1  0.969600  0.789500  0.774900  1.0  0.1167
  H  H231  1  0.095600  0.812100  0.774900  1.0  0.1132
  H  H232  1  0.129200  0.548700  0.562100  1.0  0.1147
  H  H233  1  0.256200  0.549000  0.572600  1.0  0.1128
  H  H234  1  0.022800  0.857900  0.841100  1.0  0.1053
  H  H235  1  0.182700  0.621400  0.625600  1.0  0.1175
  H  H236  1  0.053900  0.097100  0.098700  1.0  0.5018
  H  H237  1  0.186100  0.221300  0.210000  1.0  0.4974
  H  H238  1  0.214900  0.123900  0.070600  1.0  0.1118
  H  H239  1  0.268800  0.192700  0.136200  1.0  0.1094
  H  H240  1  0.341900  0.139800  0.072500  1.0  0.1125
  H  H241  1  0.399200  0.152200  0.106200  1.0  0.1079
  H  H242  1  0.453000  0.233200  0.181500  1.0  0.1112
  H  H243  1  0.473700  0.152500  0.113500  1.0  0.1103
  H  H244  1  0.570700  0.189500  0.165500  1.0  0.1091
  H  H245  1  0.480300  0.259500  0.227800  1.0  0.1114
  H  H246  1  0.615100  0.147000  0.135400  1.0  0.1108
  H  H247  1  0.469600  0.289500  0.274900  1.0  0.1167
  H  H248  1  0.595600  0.312100  0.274900  1.0  0.1132
  H  H249  1  0.629200  0.048700  0.062100  1.0  0.1147
  H  H250  1  0.756200  0.049000  0.072600  1.0  0.1128
  H  H251  1  0.522800  0.357900  0.341100  1.0  0.1053
  H  H252  1  0.682700  0.121400  0.125600  1.0  0.1175
  H  H253  1  0.597100  0.446100  0.598700  1.0  0.5012
  H  H254  1  0.721300  0.313900  0.710000  1.0  0.4978
  H  H255  1  0.623900  0.285100  0.570600  1.0  0.1125
  H  H256  1  0.692700  0.231200  0.636200  1.0  0.1099
  H  H257  1  0.639800  0.158100  0.572500  1.0  0.1126
  H  H258  1  0.652200  0.100800  0.606200  1.0  0.108
  H  H259  1  0.733200  0.047000  0.681500  1.0  0.1129
  H  H260  1  0.652500  0.026300  0.613500  1.0  0.1109
  H  H261  1  0.689500  0.929300  0.665500  1.0  0.1087
  H  H262  1  0.759500  0.019700  0.727800  1.0  0.1097
  H  H263  1  0.647000  0.884900  0.635400  1.0  0.1105
  H  H264  1  0.789500  0.030400  0.774900  1.0  0.1164
  H  H265  1  0.812100  0.904400  0.774900  1.0  0.1137
  H  H266  1  0.548700  0.870800  0.562100  1.0  0.1153
  H  H267  1  0.549000  0.743800  0.572600  1.0  0.1137
  H  H268  1  0.857900  0.977200  0.841100  1.0  0.1049
  H  H269  1  0.621400  0.817300  0.625600  1.0  0.1175
  H  H270  1  0.097100  0.946100  0.098700  1.0  0.5012
  H  H271  1  0.221300  0.813900  0.210000  1.0  0.4978
  H  H272  1  0.123900  0.785100  0.070600  1.0  0.1125
  H  H273  1  0.192700  0.731200  0.136200  1.0  0.1099
  H  H274  1  0.139800  0.658100  0.072500  1.0  0.1126
  H  H275  1  0.152200  0.600800  0.106200  1.0  0.108
  H  H276  1  0.233200  0.547000  0.181500  1.0  0.1109
  H  H277  1  0.152500  0.526300  0.113500  1.0  0.1109
  H  H278  1  0.189500  0.429300  0.165500  1.0  0.1087
  H  H279  1  0.259500  0.519700  0.227800  1.0  0.1097
  H  H280  1  0.147000  0.384900  0.135400  1.0  0.1105
  H  H281  1  0.289500  0.530400  0.274900  1.0  0.1164
  H  H282  1  0.312100  0.404400  0.274900  1.0  0.1137
  H  H283  1  0.048700  0.370800  0.062100  1.0  0.1153
  H  H284  1  0.049000  0.243800  0.072600  1.0  0.1137
  H  H285  1  0.357900  0.477200  0.341100  1.0  0.1049
  H  H286  1  0.121400  0.317300  0.125600  1.0  0.1175
  H  H287  1  0.402900  0.553900  0.598700  1.0  0.5058
  H  H288  1  0.278700  0.686100  0.710000  1.0  0.4979
  H  H289  1  0.376100  0.714900  0.570600  1.0  0.1125
  H  H290  1  0.307300  0.768800  0.636200  1.0  0.1097
  H  H291  1  0.360200  0.841900  0.572500  1.0  0.1123
  H  H292  1  0.347800  0.899200  0.606200  1.0  0.1081
  H  H293  1  0.266800  0.953000  0.681500  1.0  0.1128
  H  H294  1  0.347500  0.973700  0.613500  1.0  0.1106
  H  H295  1  0.310500  0.070700  0.665500  1.0  0.1086
  H  H296  1  0.240500  0.980300  0.727800  1.0  0.1103
  H  H297  1  0.353000  0.115100  0.635400  1.0  0.1109
  H  H298  1  0.210500  0.969600  0.774900  1.0  0.1166
  H  H299  1  0.187900  0.095600  0.774900  1.0  0.1136
  H  H300  1  0.451300  0.129200  0.562100  1.0  0.1153
  H  H301  1  0.451000  0.256200  0.572600  1.0  0.1135
  H  H302  1  0.142100  0.022800  0.841100  1.0  0.105
  H  H303  1  0.378600  0.182700  0.625600  1.0  0.1174
  H  H304  1  0.902900  0.053900  0.098700  1.0  0.5058
  H  H305  1  0.778700  0.186100  0.210000  1.0  0.4979
  H  H306  1  0.876100  0.214900  0.070600  1.0  0.1125
  H  H307  1  0.807300  0.268800  0.136200  1.0  0.1097
  H  H308  1  0.860200  0.341900  0.072500  1.0  0.1123
  H  H309  1  0.847800  0.399200  0.106200  1.0  0.1081
  H  H310  1  0.766800  0.453000  0.181500  1.0  0.1115
  H  H311  1  0.847500  0.473700  0.113500  1.0  0.1106
  H  H312  1  0.810500  0.570700  0.165500  1.0  0.1086
  H  H313  1  0.740500  0.480300  0.227800  1.0  0.1103
  H  H314  1  0.853000  0.615100  0.135400  1.0  0.1109
  H  H315  1  0.710500  0.469600  0.274900  1.0  0.1166
  H  H316  1  0.687900  0.595600  0.274900  1.0  0.1136
  H  H317  1  0.951300  0.629200  0.062100  1.0  0.1153
  H  H318  1  0.951000  0.756200  0.072600  1.0  0.1135
  H  H319  1  0.642100  0.522800  0.341100  1.0  0.105
  H  H320  1  0.878600  0.682700  0.125600  1.0  0.1174
  C  C321  1  0.779210  0.627830  0.432420  1.0  -0.1553
  C  C322  1  0.783630  0.598730  0.459120  1.0  0.6985
  C  C323  1  0.738990  0.635240  0.420380  1.0  0.0329
  C  C324  1  0.735460  0.659870  0.394670  1.0  -0.1466
  C  C325  1  0.692620  0.665940  0.380020  1.0  0.6908
  C  C326  1  0.771340  0.676620  0.381170  1.0  -0.0268
  C  C327  1  0.815210  0.644810  0.419270  1.0  -0.0717
  C  C328  1  0.811130  0.669360  0.393650  1.0  0.1035
  C  C329  1  0.888510  0.672890  0.380960  1.0  -0.0434
  C  C330  1  0.911470  0.696100  0.361240  1.0  0.1208
  C  C331  1  0.971320  0.715970  0.329420  1.0  -0.0176
  C  C332  1  0.956240  0.692770  0.353610  1.0  -0.0713
  C  C333  1  0.983840  0.667650  0.370220  1.0  -0.0724
  C  C334  1  0.013970  0.713230  0.321690  1.0  -0.0701
  C  C335  1  0.041790  0.689340  0.338850  1.0  -0.0104
  C  C336  1  0.054200  0.638660  0.380120  1.0  0.1451
  C  C337  1  0.026510  0.665180  0.362510  1.0  -0.1025
  C  C338  1  0.009690  0.757340  0.274280  1.0  -0.0549
  C  C339  1  0.030670  0.736800  0.296550  1.0  0.2187
  C  C340  1  0.097140  0.633380  0.377990  1.0  -0.1034
  C  C341  1  0.989700  0.824100  0.189480  1.0  -0.1562
  C  C342  1  0.993440  0.801530  0.216170  1.0  -0.0776
  C  C343  1  0.069120  0.815170  0.216130  1.0  -0.0076
  C  C344  1  0.033360  0.797480  0.229060  1.0  0.1044
  C  C345  1  0.193470  0.544120  0.436270  1.0  -0.1537
  C  C346  1  0.153440  0.558800  0.428320  1.0  -0.0361
  C  C347  1  0.150110  0.588800  0.405800  1.0  0.0636
  C  C348  1  0.229400  0.558580  0.421650  1.0  0.0199
  C  C349  1  0.025460  0.842440  0.176420  1.0  0.044
  C  C350  1  0.947430  0.827130  0.174330  1.0  0.6956
  C  C351  1  0.225260  0.587490  0.398410  1.0  -0.1475
  C  C352  1  0.064960  0.837620  0.189540  1.0  -0.1535
  C  C353  1  0.104270  0.854630  0.174430  1.0  0.695
  C  C354  1  0.185560  0.602460  0.390170  1.0  -0.0751
  C  C355  1  0.197430  0.510890  0.460240  1.0  0.6875
  C  C356  1  0.264290  0.601500  0.381660  1.0  0.6785
  C  C357  1  0.279210  0.127830  0.932420  1.0  -0.1553
  C  C358  1  0.283630  0.098730  0.959120  1.0  0.6985
  C  C359  1  0.238990  0.135240  0.920380  1.0  0.0329
  C  C360  1  0.235460  0.159870  0.894670  1.0  -0.1466
  C  C361  1  0.192620  0.165940  0.880020  1.0  0.6908
  C  C362  1  0.271340  0.176620  0.881170  1.0  -0.0268
  C  C363  1  0.315210  0.144810  0.919270  1.0  -0.0717
  C  C364  1  0.311130  0.169360  0.893650  1.0  0.1035
  C  C365  1  0.388510  0.172890  0.880960  1.0  -0.0434
  C  C366  1  0.411470  0.196100  0.861240  1.0  0.1225
  C  C367  1  0.471320  0.215970  0.829420  1.0  -0.0125
  C  C368  1  0.456240  0.192770  0.853610  1.0  -0.0697
  C  C369  1  0.483840  0.167650  0.870220  1.0  -0.0708
  C  C370  1  0.513970  0.213230  0.821690  1.0  -0.0701
  C  C371  1  0.541790  0.189340  0.838850  1.0  -0.0104
  C  C372  1  0.554200  0.138660  0.880120  1.0  0.1451
  C  C373  1  0.526510  0.165180  0.862510  1.0  -0.0991
  C  C374  1  0.509690  0.257340  0.774280  1.0  -0.0544
  C  C375  1  0.530670  0.236800  0.796550  1.0  0.2187
  C  C376  1  0.597140  0.133380  0.877990  1.0  -0.1034
  C  C377  1  0.489700  0.324100  0.689480  1.0  -0.1562
  C  C378  1  0.493440  0.301530  0.716170  1.0  -0.0776
  C  C379  1  0.569120  0.315170  0.716130  1.0  -0.0076
  C  C380  1  0.533360  0.297480  0.729060  1.0  0.1044
  C  C381  1  0.693470  0.044120  0.936270  1.0  -0.1537
  C  C382  1  0.653440  0.058800  0.928320  1.0  -0.0361
  C  C383  1  0.650110  0.088800  0.905800  1.0  0.0636
  C  C384  1  0.729400  0.058580  0.921650  1.0  0.0199
  C  C385  1  0.525460  0.342440  0.676420  1.0  0.044
  C  C386  1  0.447430  0.327130  0.674330  1.0  0.6956
  C  C387  1  0.725260  0.087490  0.898410  1.0  -0.1475
  C  C388  1  0.564960  0.337620  0.689540  1.0  -0.1535
  C  C389  1  0.604270  0.354630  0.674430  1.0  0.695
  C  C390  1  0.685560  0.102460  0.890170  1.0  -0.0751
  C  C391  1  0.697430  0.010890  0.960240  1.0  0.6875
  C  C392  1  0.764290  0.101500  0.881660  1.0  0.6785
  C  C393  1  0.220790  0.372170  0.432420  1.0  -0.155
  C  C394  1  0.216370  0.401270  0.459120  1.0  0.6991
  C  C395  1  0.261010  0.364760  0.420380  1.0  0.0331
  C  C396  1  0.264540  0.340130  0.394670  1.0  -0.1462
  C  C397  1  0.307380  0.334060  0.380020  1.0  0.6907
  C  C398  1  0.228660  0.323380  0.381170  1.0  -0.0259
  C  C399  1  0.184790  0.355190  0.419270  1.0  -0.0728
  C  C400  1  0.188870  0.330640  0.393650  1.0  0.1041
  C  C401  1  0.111490  0.327110  0.380960  1.0  -0.0448
  C  C402  1  0.088530  0.303900  0.361240  1.0  0.1214
  C  C403  1  0.028680  0.284030  0.329420  1.0  -0.0173
  C  C404  1  0.043760  0.307230  0.353610  1.0  -0.07
  C  C405  1  0.016160  0.332350  0.370220  1.0  -0.0726
  C  C406  1  0.986030  0.286770  0.321690  1.0  -0.07
  C  C407  1  0.958210  0.310660  0.338850  1.0  -0.0117
  C  C408  1  0.945800  0.361340  0.380120  1.0  0.1481
  C  C409  1  0.973490  0.334820  0.362510  1.0  -0.1013
  C  C410  1  0.990310  0.242660  0.274280  1.0  -0.0532
  C  C411  1  0.969330  0.263200  0.296550  1.0  0.2199
  C  C412  1  0.902860  0.366620  0.377990  1.0  -0.1022
  C  C413  1  0.010300  0.175900  0.189480  1.0  -0.1562
  C  C414  1  0.006560  0.198470  0.216170  1.0  -0.0776
  C  C415  1  0.930880  0.184830  0.216130  1.0  -0.0089
  C  C416  1  0.966640  0.202520  0.229060  1.0  0.1044
  C  C417  1  0.806530  0.455880  0.436270  1.0  -0.1541
  C  C418  1  0.846560  0.441200  0.428320  1.0  -0.0362
  C  C419  1  0.849890  0.411200  0.405800  1.0  0.0639
  C  C420  1  0.770600  0.441420  0.421650  1.0  0.0186
  C  C421  1  0.974540  0.157560  0.176420  1.0  0.0441
  C  C422  1  0.052570  0.172870  0.174330  1.0  0.6948
  C  C423  1  0.774740  0.412510  0.398410  1.0  -0.1479
  C  C424  1  0.935040  0.162380  0.189540  1.0  -0.1539
  C  C425  1  0.895730  0.145370  0.174430  1.0  0.6945
  C  C426  1  0.814440  0.397540  0.390170  1.0  -0.0762
  C  C427  1  0.802570  0.489110  0.460240  1.0  0.6878
  C  C428  1  0.735710  0.398500  0.381660  1.0  0.678
  C  C429  1  0.720790  0.872170  0.932420  1.0  -0.155
  C  C430  1  0.716370  0.901270  0.959120  1.0  0.6991
  C  C431  1  0.761010  0.864760  0.920380  1.0  0.0331
  C  C432  1  0.764540  0.840130  0.894670  1.0  -0.1462
  C  C433  1  0.807380  0.834060  0.880020  1.0  0.6907
  C  C434  1  0.728660  0.823380  0.881170  1.0  -0.0259
  C  C435  1  0.684790  0.855190  0.919270  1.0  -0.0728
  C  C436  1  0.688870  0.830640  0.893650  1.0  0.1041
  C  C437  1  0.611490  0.827110  0.880960  1.0  -0.0448
  C  C438  1  0.588530  0.803900  0.861240  1.0  0.1227
  C  C439  1  0.528680  0.784030  0.829420  1.0  -0.0125
  C  C440  1  0.543760  0.807230  0.853610  1.0  -0.0689
  C  C441  1  0.516160  0.832350  0.870220  1.0  -0.0709
  C  C442  1  0.486030  0.786770  0.821690  1.0  -0.07
  C  C443  1  0.458210  0.810660  0.838850  1.0  -0.0117
  C  C444  1  0.445800  0.861340  0.880120  1.0  0.1481
  C  C445  1  0.473490  0.834820  0.862510  1.0  -0.0976
  C  C446  1  0.490310  0.742660  0.774280  1.0  -0.0532
  C  C447  1  0.469330  0.763200  0.796550  1.0  0.2199
  C  C448  1  0.402860  0.866620  0.877990  1.0  -0.1022
  C  C449  1  0.510300  0.675900  0.689480  1.0  -0.1562
  C  C450  1  0.506560  0.698470  0.716170  1.0  -0.0776
  C  C451  1  0.430880  0.684830  0.716130  1.0  -0.0089
  C  C452  1  0.466640  0.702520  0.729060  1.0  0.1044
  C  C453  1  0.306530  0.955880  0.936270  1.0  -0.1541
  C  C454  1  0.346560  0.941200  0.928320  1.0  -0.0362
  C  C455  1  0.349890  0.911200  0.905800  1.0  0.0639
  C  C456  1  0.270600  0.941420  0.921650  1.0  0.0186
  C  C457  1  0.474540  0.657560  0.676420  1.0  0.0441
  C  C458  1  0.552570  0.672870  0.674330  1.0  0.6948
  C  C459  1  0.274740  0.912510  0.898410  1.0  -0.1479
  C  C460  1  0.435040  0.662380  0.689540  1.0  -0.1539
  C  C461  1  0.395730  0.645370  0.674430  1.0  0.6945
  C  C462  1  0.314440  0.897540  0.890170  1.0  -0.0762
  C  C463  1  0.302570  0.989110  0.960240  1.0  0.6878
  C  C464  1  0.235710  0.898500  0.881660  1.0  0.678
  C  C465  1  0.372170  0.779210  0.432420  1.0  -0.1557
  C  C466  1  0.401270  0.783630  0.459120  1.0  0.6979
  C  C467  1  0.364760  0.738990  0.420380  1.0  0.0347
  C  C468  1  0.340130  0.735460  0.394670  1.0  -0.1475
  C  C469  1  0.334060  0.692620  0.380020  1.0  0.6912
  C  C470  1  0.323380  0.771340  0.381170  1.0  -0.0281
  C  C471  1  0.355190  0.815210  0.419270  1.0  -0.069
  C  C472  1  0.330640  0.811130  0.393650  1.0  0.1035
  C  C473  1  0.327110  0.888510  0.380960  1.0  -0.0452
  C  C474  1  0.303900  0.911470  0.361240  1.0  0.1207
  C  C475  1  0.284030  0.971320  0.329420  1.0  -0.0171
  C  C476  1  0.307230  0.956240  0.353610  1.0  -0.0694
  C  C477  1  0.332350  0.983840  0.370220  1.0  -0.0735
  C  C478  1  0.286770  0.013970  0.321690  1.0  -0.0697
  C  C479  1  0.310660  0.041790  0.338850  1.0  -0.0102
  C  C480  1  0.361340  0.054200  0.380120  1.0  0.143
  C  C481  1  0.334820  0.026510  0.362510  1.0  -0.1031
  C  C482  1  0.242660  0.009690  0.274280  1.0  -0.0549
  C  C483  1  0.263200  0.030670  0.296550  1.0  0.2224
  C  C484  1  0.366620  0.097140  0.377990  1.0  -0.1016
  C  C485  1  0.175900  0.989700  0.189480  1.0  -0.1565
  C  C486  1  0.198470  0.993440  0.216170  1.0  -0.0753
  C  C487  1  0.184830  0.069120  0.216130  1.0  -0.0075
  C  C488  1  0.202520  0.033360  0.229060  1.0  0.104
  C  C489  1  0.455880  0.193470  0.436270  1.0  -0.1541
  C  C490  1  0.441200  0.153440  0.428320  1.0  -0.0356
  C  C491  1  0.411200  0.150110  0.405800  1.0  0.0657
  C  C492  1  0.441420  0.229400  0.421650  1.0  0.0215
  C  C493  1  0.157560  0.025460  0.176420  1.0  0.0423
  C  C494  1  0.172870  0.947430  0.174330  1.0  0.6961
  C  C495  1  0.412510  0.225260  0.398410  1.0  -0.1479
  C  C496  1  0.162380  0.064960  0.189540  1.0  -0.1545
  C  C497  1  0.145370  0.104270  0.174430  1.0  0.6969
  C  C498  1  0.397540  0.185560  0.390170  1.0  -0.0775
  C  C499  1  0.489110  0.197430  0.460240  1.0  0.6874
  C  C500  1  0.398500  0.264290  0.381660  1.0  0.6786
  C  C501  1  0.872170  0.279210  0.932420  1.0  -0.1557
  C  C502  1  0.901270  0.283630  0.959120  1.0  0.6979
  C  C503  1  0.864760  0.238990  0.920380  1.0  0.0347
  C  C504  1  0.840130  0.235460  0.894670  1.0  -0.1475
  C  C505  1  0.834060  0.192620  0.880020  1.0  0.6912
  C  C506  1  0.823380  0.271340  0.881170  1.0  -0.0281
  C  C507  1  0.855190  0.315210  0.919270  1.0  -0.069
  C  C508  1  0.830640  0.311130  0.893650  1.0  0.1035
  C  C509  1  0.827110  0.388510  0.880960  1.0  -0.0452
  C  C510  1  0.803900  0.411470  0.861240  1.0  0.122
  C  C511  1  0.784030  0.471320  0.829420  1.0  -0.0123
  C  C512  1  0.807230  0.456240  0.853610  1.0  -0.0681
  C  C513  1  0.832350  0.483840  0.870220  1.0  -0.0717
  C  C514  1  0.786770  0.513970  0.821690  1.0  -0.0697
  C  C515  1  0.810660  0.541790  0.838850  1.0  -0.0102
  C  C516  1  0.861340  0.554200  0.880120  1.0  0.143
  C  C517  1  0.834820  0.526510  0.862510  1.0  -0.0995
  C  C518  1  0.742660  0.509690  0.774280  1.0  -0.0545
  C  C519  1  0.763200  0.530670  0.796550  1.0  0.2224
  C  C520  1  0.866620  0.597140  0.877990  1.0  -0.1016
  C  C521  1  0.675900  0.489700  0.689480  1.0  -0.1565
  C  C522  1  0.698470  0.493440  0.716170  1.0  -0.0753
  C  C523  1  0.684830  0.569120  0.716130  1.0  -0.0075
  C  C524  1  0.702520  0.533360  0.729060  1.0  0.104
  C  C525  1  0.955880  0.693470  0.936270  1.0  -0.1541
  C  C526  1  0.941200  0.653440  0.928320  1.0  -0.0356
  C  C527  1  0.911200  0.650110  0.905800  1.0  0.0657
  C  C528  1  0.941420  0.729400  0.921650  1.0  0.0215
  C  C529  1  0.657560  0.525460  0.676420  1.0  0.0423
  C  C530  1  0.672870  0.447430  0.674330  1.0  0.6961
  C  C531  1  0.912510  0.725260  0.898410  1.0  -0.1479
  C  C532  1  0.662380  0.564960  0.689540  1.0  -0.1545
  C  C533  1  0.645370  0.604270  0.674430  1.0  0.6969
  C  C534  1  0.897540  0.685560  0.890170  1.0  -0.0775
  C  C535  1  0.989110  0.697430  0.960240  1.0  0.6874
  C  C536  1  0.898500  0.764290  0.881660  1.0  0.6786
  C  C537  1  0.627830  0.220790  0.432420  1.0  -0.1556
  C  C538  1  0.598730  0.216370  0.459120  1.0  0.6985
  C  C539  1  0.635240  0.261010  0.420380  1.0  0.034
  C  C540  1  0.659870  0.264540  0.394670  1.0  -0.147
  C  C541  1  0.665940  0.307380  0.380020  1.0  0.6925
  C  C542  1  0.676620  0.228660  0.381170  1.0  -0.0275
  C  C543  1  0.644810  0.184790  0.419270  1.0  -0.0706
  C  C544  1  0.669360  0.188870  0.393650  1.0  0.1035
  C  C545  1  0.672890  0.111490  0.380960  1.0  -0.0445
  C  C546  1  0.696100  0.088530  0.361240  1.0  0.123
  C  C547  1  0.715970  0.028680  0.329420  1.0  -0.0178
  C  C548  1  0.692770  0.043760  0.353610  1.0  -0.0689
  C  C549  1  0.667650  0.016160  0.370220  1.0  -0.0728
  C  C550  1  0.713230  0.986030  0.321690  1.0  -0.0702
  C  C551  1  0.689340  0.958210  0.338850  1.0  -0.0101
  C  C552  1  0.638660  0.945800  0.380120  1.0  0.1468
  C  C553  1  0.665180  0.973490  0.362510  1.0  -0.1027
  C  C554  1  0.757340  0.990310  0.274280  1.0  -0.0552
  C  C555  1  0.736800  0.969330  0.296550  1.0  0.2224
  C  C556  1  0.633380  0.902860  0.377990  1.0  -0.102
  C  C557  1  0.824100  0.010300  0.189480  1.0  -0.1572
  C  C558  1  0.801530  0.006560  0.216170  1.0  -0.0754
  C  C559  1  0.815170  0.930880  0.216130  1.0  -0.0077
  C  C560  1  0.797480  0.966640  0.229060  1.0  0.1043
  C  C561  1  0.544120  0.806530  0.436270  1.0  -0.154
  C  C562  1  0.558800  0.846560  0.428320  1.0  -0.037
  C  C563  1  0.588800  0.849890  0.405800  1.0  0.0662
  C  C564  1  0.558580  0.770600  0.421650  1.0  0.0216
  C  C565  1  0.842440  0.974540  0.176420  1.0  0.0425
  C  C566  1  0.827130  0.052570  0.174330  1.0  0.6967
  C  C567  1  0.587490  0.774740  0.398410  1.0  -0.1473
  C  C568  1  0.837620  0.935040  0.189540  1.0  -0.1547
  C  C569  1  0.854630  0.895730  0.174430  1.0  0.697
  C  C570  1  0.602460  0.814440  0.390170  1.0  -0.0772
  C  C571  1  0.510890  0.802570  0.460240  1.0  0.6879
  C  C572  1  0.601500  0.735710  0.381660  1.0  0.6784
  C  C573  1  0.127830  0.720790  0.932420  1.0  -0.1556
  C  C574  1  0.098730  0.716370  0.959120  1.0  0.6985
  C  C575  1  0.135240  0.761010  0.920380  1.0  0.034
  C  C576  1  0.159870  0.764540  0.894670  1.0  -0.147
  C  C577  1  0.165940  0.807380  0.880020  1.0  0.6925
  C  C578  1  0.176620  0.728660  0.881170  1.0  -0.0275
  C  C579  1  0.144810  0.684790  0.919270  1.0  -0.0706
  C  C580  1  0.169360  0.688870  0.893650  1.0  0.1035
  C  C581  1  0.172890  0.611490  0.880960  1.0  -0.0445
  C  C582  1  0.196100  0.588530  0.861240  1.0  0.1249
  C  C583  1  0.215970  0.528680  0.829420  1.0  -0.013
  C  C584  1  0.192770  0.543760  0.853610  1.0  -0.0678
  C  C585  1  0.167650  0.516160  0.870220  1.0  -0.0711
  C  C586  1  0.213230  0.486030  0.821690  1.0  -0.0702
  C  C587  1  0.189340  0.458210  0.838850  1.0  -0.0101
  C  C588  1  0.138660  0.445800  0.880120  1.0  0.1468
  C  C589  1  0.165180  0.473490  0.862510  1.0  -0.0997
  C  C590  1  0.257340  0.490310  0.774280  1.0  -0.0545
  C  C591  1  0.236800  0.469330  0.796550  1.0  0.2224
  C  C592  1  0.133380  0.402860  0.877990  1.0  -0.102
  C  C593  1  0.324100  0.510300  0.689480  1.0  -0.1572
  C  C594  1  0.301530  0.506560  0.716170  1.0  -0.0754
  C  C595  1  0.315170  0.430880  0.716130  1.0  -0.0077
  C  C596  1  0.297480  0.466640  0.729060  1.0  0.1043
  C  C597  1  0.044120  0.306530  0.936270  1.0  -0.154
  C  C598  1  0.058800  0.346560  0.928320  1.0  -0.037
  C  C599  1  0.088800  0.349890  0.905800  1.0  0.0662
  C  C600  1  0.058580  0.270600  0.921650  1.0  0.0216
  C  C601  1  0.342440  0.474540  0.676420  1.0  0.0425
  C  C602  1  0.327130  0.552570  0.674330  1.0  0.6967
  C  C603  1  0.087490  0.274740  0.898410  1.0  -0.1473
  C  C604  1  0.337620  0.435040  0.689540  1.0  -0.1547
  C  C605  1  0.354630  0.395730  0.674430  1.0  0.697
  C  C606  1  0.102460  0.314440  0.890170  1.0  -0.0772
  C  C607  1  0.010890  0.302570  0.960240  1.0  0.6879
  C  C608  1  0.101500  0.235710  0.881660  1.0  0.6784
  C  C609  1  0.220790  0.372170  0.567580  1.0  -0.1533
  C  C610  1  0.216370  0.401270  0.540880  1.0  0.699
  C  C611  1  0.261010  0.364760  0.579620  1.0  0.0325
  C  C612  1  0.264540  0.340130  0.605330  1.0  -0.1461
  C  C613  1  0.307380  0.334060  0.619980  1.0  0.6906
  C  C614  1  0.228660  0.323380  0.618830  1.0  -0.0255
  C  C615  1  0.184790  0.355190  0.580730  1.0  -0.0717
  C  C616  1  0.188870  0.330640  0.606350  1.0  0.1039
  C  C617  1  0.111490  0.327110  0.619040  1.0  -0.0455
  C  C618  1  0.088530  0.303900  0.638760  1.0  0.1211
  C  C619  1  0.028680  0.284030  0.670580  1.0  -0.0175
  C  C620  1  0.043760  0.307230  0.646390  1.0  -0.0699
  C  C621  1  0.016160  0.332350  0.629780  1.0  -0.0737
  C  C622  1  0.986030  0.286770  0.678310  1.0  -0.0701
  C  C623  1  0.958210  0.310660  0.661150  1.0  -0.012
  C  C624  1  0.945800  0.361340  0.619880  1.0  0.1482
  C  C625  1  0.973490  0.334820  0.637490  1.0  -0.1011
  C  C626  1  0.990310  0.242660  0.725720  1.0  -0.0533
  C  C627  1  0.969330  0.263200  0.703450  1.0  0.2208
  C  C628  1  0.902860  0.366620  0.622010  1.0  -0.1007
  C  C629  1  0.010300  0.175900  0.810520  1.0  -0.1562
  C  C630  1  0.006560  0.198470  0.783830  1.0  -0.0776
  C  C631  1  0.930880  0.184830  0.783870  1.0  -0.0091
  C  C632  1  0.966640  0.202520  0.770940  1.0  0.1047
  C  C633  1  0.806530  0.455880  0.563730  1.0  -0.1541
  C  C634  1  0.846560  0.441200  0.571680  1.0  -0.0353
  C  C635  1  0.849890  0.411200  0.594200  1.0  0.064
  C  C636  1  0.770600  0.441420  0.578350  1.0  0.0186
  C  C637  1  0.974540  0.157560  0.823580  1.0  0.0447
  C  C638  1  0.052570  0.172870  0.825670  1.0  0.6946
  C  C639  1  0.774740  0.412510  0.601590  1.0  -0.1479
  C  C640  1  0.935040  0.162380  0.810460  1.0  -0.1539
  C  C641  1  0.895730  0.145370  0.825570  1.0  0.695
  C  C642  1  0.814440  0.397540  0.609830  1.0  -0.0754
  C  C643  1  0.802570  0.489110  0.539760  1.0  0.6879
  C  C644  1  0.735710  0.398500  0.618340  1.0  0.678
  C  C645  1  0.720790  0.872170  0.067580  1.0  -0.1533
  C  C646  1  0.716370  0.901270  0.040880  1.0  0.699
  C  C647  1  0.761010  0.864760  0.079620  1.0  0.0325
  C  C648  1  0.764540  0.840130  0.105330  1.0  -0.1461
  C  C649  1  0.807380  0.834060  0.119980  1.0  0.6906
  C  C650  1  0.728660  0.823380  0.118830  1.0  -0.0255
  C  C651  1  0.684790  0.855190  0.080730  1.0  -0.0717
  C  C652  1  0.688870  0.830640  0.106350  1.0  0.1039
  C  C653  1  0.611490  0.827110  0.119040  1.0  -0.0455
  C  C654  1  0.588530  0.803900  0.138760  1.0  0.1224
  C  C655  1  0.528680  0.784030  0.170580  1.0  -0.0123
  C  C656  1  0.543760  0.807230  0.146390  1.0  -0.0688
  C  C657  1  0.516160  0.832350  0.129780  1.0  -0.0713
  C  C658  1  0.486030  0.786770  0.178310  1.0  -0.0701
  C  C659  1  0.458210  0.810660  0.161150  1.0  -0.012
  C  C660  1  0.445800  0.861340  0.119880  1.0  0.1482
  C  C661  1  0.473490  0.834820  0.137490  1.0  -0.0998
  C  C662  1  0.490310  0.742660  0.225720  1.0  -0.0533
  C  C663  1  0.469330  0.763200  0.203450  1.0  0.2208
  C  C664  1  0.402860  0.866620  0.122010  1.0  -0.1007
  C  C665  1  0.510300  0.675900  0.310520  1.0  -0.1562
  C  C666  1  0.506560  0.698470  0.283830  1.0  -0.0776
  C  C667  1  0.430880  0.684830  0.283870  1.0  -0.0091
  C  C668  1  0.466640  0.702520  0.270940  1.0  0.1047
  C  C669  1  0.306530  0.955880  0.063730  1.0  -0.1541
  C  C670  1  0.346560  0.941200  0.071680  1.0  -0.0353
  C  C671  1  0.349890  0.911200  0.094200  1.0  0.064
  C  C672  1  0.270600  0.941420  0.078350  1.0  0.0186
  C  C673  1  0.474540  0.657560  0.323580  1.0  0.0447
  C  C674  1  0.552570  0.672870  0.325670  1.0  0.6946
  C  C675  1  0.274740  0.912510  0.101590  1.0  -0.1479
  C  C676  1  0.435040  0.662380  0.310460  1.0  -0.1539
  C  C677  1  0.395730  0.645370  0.325570  1.0  0.695
  C  C678  1  0.314440  0.897540  0.109830  1.0  -0.0754
  C  C679  1  0.302570  0.989110  0.039760  1.0  0.6879
  C  C680  1  0.235710  0.898500  0.118340  1.0  0.678
  C  C681  1  0.779210  0.627830  0.567580  1.0  -0.1537
  C  C682  1  0.783630  0.598730  0.540880  1.0  0.6986
  C  C683  1  0.738990  0.635240  0.579620  1.0  0.0322
  C  C684  1  0.735460  0.659870  0.605330  1.0  -0.1465
  C  C685  1  0.692620  0.665940  0.619980  1.0  0.6909
  C  C686  1  0.771340  0.676620  0.618830  1.0  -0.0273
  C  C687  1  0.815210  0.644810  0.580730  1.0  -0.0707
  C  C688  1  0.811130  0.669360  0.606350  1.0  0.1031
  C  C689  1  0.888510  0.672890  0.619040  1.0  -0.0449
  C  C690  1  0.911470  0.696100  0.638760  1.0  0.1208
  C  C691  1  0.971320  0.715970  0.670580  1.0  -0.018
  C  C692  1  0.956240  0.692770  0.646390  1.0  -0.0713
  C  C693  1  0.983840  0.667650  0.629780  1.0  -0.073
  C  C694  1  0.013970  0.713230  0.678310  1.0  -0.0702
  C  C695  1  0.041790  0.689340  0.661150  1.0  -0.0109
  C  C696  1  0.054200  0.638660  0.619880  1.0  0.1452
  C  C697  1  0.026510  0.665180  0.637490  1.0  -0.1023
  C  C698  1  0.009690  0.757340  0.725720  1.0  -0.055
  C  C699  1  0.030670  0.736800  0.703450  1.0  0.2198
  C  C700  1  0.097140  0.633380  0.622010  1.0  -0.1019
  C  C701  1  0.989700  0.824100  0.810520  1.0  -0.1563
  C  C702  1  0.993440  0.801530  0.783830  1.0  -0.0771
  C  C703  1  0.069120  0.815170  0.783870  1.0  -0.0078
  C  C704  1  0.033360  0.797480  0.770940  1.0  0.1046
  C  C705  1  0.193470  0.544120  0.563730  1.0  -0.1541
  C  C706  1  0.153440  0.558800  0.571680  1.0  -0.0356
  C  C707  1  0.150110  0.588800  0.594200  1.0  0.0638
  C  C708  1  0.229400  0.558580  0.578350  1.0  0.0201
  C  C709  1  0.025460  0.842440  0.823580  1.0  0.0439
  C  C710  1  0.947430  0.827130  0.825670  1.0  0.6956
  C  C711  1  0.225260  0.587490  0.601590  1.0  -0.1476
  C  C712  1  0.064960  0.837620  0.810460  1.0  -0.1536
  C  C713  1  0.104270  0.854630  0.825570  1.0  0.6954
  C  C714  1  0.185560  0.602460  0.609830  1.0  -0.0749
  C  C715  1  0.197430  0.510890  0.539760  1.0  0.6875
  C  C716  1  0.264290  0.601500  0.618340  1.0  0.6783
  C  C717  1  0.279210  0.127830  0.067580  1.0  -0.1537
  C  C718  1  0.283630  0.098730  0.040880  1.0  0.6986
  C  C719  1  0.238990  0.135240  0.079620  1.0  0.0322
  C  C720  1  0.235460  0.159870  0.105330  1.0  -0.1465
  C  C721  1  0.192620  0.165940  0.119980  1.0  0.6909
  C  C722  1  0.271340  0.176620  0.118830  1.0  -0.0273
  C  C723  1  0.315210  0.144810  0.080730  1.0  -0.0707
  C  C724  1  0.311130  0.169360  0.106350  1.0  0.1031
  C  C725  1  0.388510  0.172890  0.119040  1.0  -0.0449
  C  C726  1  0.411470  0.196100  0.138760  1.0  0.1224
  C  C727  1  0.471320  0.215970  0.170580  1.0  -0.0125
  C  C728  1  0.456240  0.192770  0.146390  1.0  -0.0696
  C  C729  1  0.483840  0.167650  0.129780  1.0  -0.0707
  C  C730  1  0.513970  0.213230  0.178310  1.0  -0.0702
  C  C731  1  0.541790  0.189340  0.161150  1.0  -0.0109
  C  C732  1  0.554200  0.138660  0.119880  1.0  0.1452
  C  C733  1  0.526510  0.165180  0.137490  1.0  -0.101
  C  C734  1  0.509690  0.257340  0.225720  1.0  -0.0545
  C  C735  1  0.530670  0.236800  0.203450  1.0  0.2198
  C  C736  1  0.597140  0.133380  0.122010  1.0  -0.1019
  C  C737  1  0.489700  0.324100  0.310520  1.0  -0.1563
  C  C738  1  0.493440  0.301530  0.283830  1.0  -0.0771
  C  C739  1  0.569120  0.315170  0.283870  1.0  -0.0078
  C  C740  1  0.533360  0.297480  0.270940  1.0  0.1046
  C  C741  1  0.693470  0.044120  0.063730  1.0  -0.1541
  C  C742  1  0.653440  0.058800  0.071680  1.0  -0.0356
  C  C743  1  0.650110  0.088800  0.094200  1.0  0.0638
  C  C744  1  0.729400  0.058580  0.078350  1.0  0.0201
  C  C745  1  0.525460  0.342440  0.323580  1.0  0.0439
  C  C746  1  0.447430  0.327130  0.325670  1.0  0.6956
  C  C747  1  0.725260  0.087490  0.101590  1.0  -0.1476
  C  C748  1  0.564960  0.337620  0.310460  1.0  -0.1536
  C  C749  1  0.604270  0.354630  0.325570  1.0  0.6954
  C  C750  1  0.685560  0.102460  0.109830  1.0  -0.0749
  C  C751  1  0.697430  0.010890  0.039760  1.0  0.6875
  C  C752  1  0.764290  0.101500  0.118340  1.0  0.6783
  C  C753  1  0.627830  0.220790  0.567580  1.0  -0.1541
  C  C754  1  0.598730  0.216370  0.540880  1.0  0.6985
  C  C755  1  0.635240  0.261010  0.579620  1.0  0.0337
  C  C756  1  0.659870  0.264540  0.605330  1.0  -0.1469
  C  C757  1  0.665940  0.307380  0.619980  1.0  0.6925
  C  C758  1  0.676620  0.228660  0.618830  1.0  -0.0271
  C  C759  1  0.644810  0.184790  0.580730  1.0  -0.0695
  C  C760  1  0.669360  0.188870  0.606350  1.0  0.1033
  C  C761  1  0.672890  0.111490  0.619040  1.0  -0.0456
  C  C762  1  0.696100  0.088530  0.638760  1.0  0.1229
  C  C763  1  0.715970  0.028680  0.670580  1.0  -0.0182
  C  C764  1  0.692770  0.043760  0.646390  1.0  -0.0687
  C  C765  1  0.667650  0.016160  0.629780  1.0  -0.0738
  C  C766  1  0.713230  0.986030  0.678310  1.0  -0.07
  C  C767  1  0.689340  0.958210  0.661150  1.0  -0.0104
  C  C768  1  0.638660  0.945800  0.619880  1.0  0.1469
  C  C769  1  0.665180  0.973490  0.637490  1.0  -0.1026
  C  C770  1  0.757340  0.990310  0.725720  1.0  -0.0551
  C  C771  1  0.736800  0.969330  0.703450  1.0  0.223
  C  C772  1  0.633380  0.902860  0.622010  1.0  -0.1003
  C  C773  1  0.824100  0.010300  0.810520  1.0  -0.1573
  C  C774  1  0.801530  0.006560  0.783830  1.0  -0.0751
  C  C775  1  0.815170  0.930880  0.783870  1.0  -0.0074
  C  C776  1  0.797480  0.966640  0.770940  1.0  0.1045
  C  C777  1  0.544120  0.806530  0.563730  1.0  -0.1542
  C  C778  1  0.558800  0.846560  0.571680  1.0  -0.0357
  C  C779  1  0.588800  0.849890  0.594200  1.0  0.0662
  C  C780  1  0.558580  0.770600  0.578350  1.0  0.0221
  C  C781  1  0.842440  0.974540  0.823580  1.0  0.0425
  C  C782  1  0.827130  0.052570  0.825670  1.0  0.6963
  C  C783  1  0.587490  0.774740  0.601590  1.0  -0.1474
  C  C784  1  0.837620  0.935040  0.810460  1.0  -0.1548
  C  C785  1  0.854630  0.895730  0.825570  1.0  0.6974
  C  C786  1  0.602460  0.814440  0.609830  1.0  -0.0766
  C  C787  1  0.510890  0.802570  0.539760  1.0  0.6879
  C  C788  1  0.601500  0.735710  0.618340  1.0  0.6781
  C  C789  1  0.127830  0.720790  0.067580  1.0  -0.1541
  C  C790  1  0.098730  0.716370  0.040880  1.0  0.6985
  C  C791  1  0.135240  0.761010  0.079620  1.0  0.0337
  C  C792  1  0.159870  0.764540  0.105330  1.0  -0.1469
  C  C793  1  0.165940  0.807380  0.119980  1.0  0.6925
  C  C794  1  0.176620  0.728660  0.118830  1.0  -0.0271
  C  C795  1  0.144810  0.684790  0.080730  1.0  -0.0695
  C  C796  1  0.169360  0.688870  0.106350  1.0  0.1033
  C  C797  1  0.172890  0.611490  0.119040  1.0  -0.0456
  C  C798  1  0.196100  0.588530  0.138760  1.0  0.1248
  C  C799  1  0.215970  0.528680  0.170580  1.0  -0.0132
  C  C800  1  0.192770  0.543760  0.146390  1.0  -0.0676
  C  C801  1  0.167650  0.516160  0.129780  1.0  -0.0715
  C  C802  1  0.213230  0.486030  0.178310  1.0  -0.07
  C  C803  1  0.189340  0.458210  0.161150  1.0  -0.0104
  C  C804  1  0.138660  0.445800  0.119880  1.0  0.1469
  C  C805  1  0.165180  0.473490  0.137490  1.0  -0.1017
  C  C806  1  0.257340  0.490310  0.225720  1.0  -0.0544
  C  C807  1  0.236800  0.469330  0.203450  1.0  0.223
  C  C808  1  0.133380  0.402860  0.122010  1.0  -0.1003
  C  C809  1  0.324100  0.510300  0.310520  1.0  -0.1573
  C  C810  1  0.301530  0.506560  0.283830  1.0  -0.0751
  C  C811  1  0.315170  0.430880  0.283870  1.0  -0.0074
  C  C812  1  0.297480  0.466640  0.270940  1.0  0.1045
  C  C813  1  0.044120  0.306530  0.063730  1.0  -0.1542
  C  C814  1  0.058800  0.346560  0.071680  1.0  -0.0357
  C  C815  1  0.088800  0.349890  0.094200  1.0  0.0662
  C  C816  1  0.058580  0.270600  0.078350  1.0  0.0221
  C  C817  1  0.342440  0.474540  0.323580  1.0  0.0425
  C  C818  1  0.327130  0.552570  0.325670  1.0  0.6963
  C  C819  1  0.087490  0.274740  0.101590  1.0  -0.1474
  C  C820  1  0.337620  0.435040  0.310460  1.0  -0.1548
  C  C821  1  0.354630  0.395730  0.325570  1.0  0.6974
  C  C822  1  0.102460  0.314440  0.109830  1.0  -0.0766
  C  C823  1  0.010890  0.302570  0.039760  1.0  0.6879
  C  C824  1  0.101500  0.235710  0.118340  1.0  0.6781
  C  C825  1  0.372170  0.779210  0.567580  1.0  -0.1539
  C  C826  1  0.401270  0.783630  0.540880  1.0  0.6978
  C  C827  1  0.364760  0.738990  0.579620  1.0  0.0337
  C  C828  1  0.340130  0.735460  0.605330  1.0  -0.1475
  C  C829  1  0.334060  0.692620  0.619980  1.0  0.6911
  C  C830  1  0.323380  0.771340  0.618830  1.0  -0.0277
  C  C831  1  0.355190  0.815210  0.580730  1.0  -0.0683
  C  C832  1  0.330640  0.811130  0.606350  1.0  0.1031
  C  C833  1  0.327110  0.888510  0.619040  1.0  -0.0464
  C  C834  1  0.303900  0.911470  0.638760  1.0  0.1205
  C  C835  1  0.284030  0.971320  0.670580  1.0  -0.0172
  C  C836  1  0.307230  0.956240  0.646390  1.0  -0.0693
  C  C837  1  0.332350  0.983840  0.629780  1.0  -0.074
  C  C838  1  0.286770  0.013970  0.678310  1.0  -0.0698
  C  C839  1  0.310660  0.041790  0.661150  1.0  -0.0105
  C  C840  1  0.361340  0.054200  0.619880  1.0  0.1429
  C  C841  1  0.334820  0.026510  0.637490  1.0  -0.1029
  C  C842  1  0.242660  0.009690  0.725720  1.0  -0.0549
  C  C843  1  0.263200  0.030670  0.703450  1.0  0.2234
  C  C844  1  0.366620  0.097140  0.622010  1.0  -0.1004
  C  C845  1  0.175900  0.989700  0.810520  1.0  -0.1565
  C  C846  1  0.198470  0.993440  0.783830  1.0  -0.075
  C  C847  1  0.184830  0.069120  0.783870  1.0  -0.0078
  C  C848  1  0.202520  0.033360  0.770940  1.0  0.1043
  C  C849  1  0.455880  0.193470  0.563730  1.0  -0.1539
  C  C850  1  0.441200  0.153440  0.571680  1.0  -0.0351
  C  C851  1  0.411200  0.150110  0.594200  1.0  0.0657
  C  C852  1  0.441420  0.229400  0.578350  1.0  0.022
  C  C853  1  0.157560  0.025460  0.823580  1.0  0.0428
  C  C854  1  0.172870  0.947430  0.825670  1.0  0.6958
  C  C855  1  0.412510  0.225260  0.601590  1.0  -0.148
  C  C856  1  0.162380  0.064960  0.810460  1.0  -0.1546
  C  C857  1  0.145370  0.104270  0.825570  1.0  0.697
  C  C858  1  0.397540  0.185560  0.609830  1.0  -0.0769
  C  C859  1  0.489110  0.197430  0.539760  1.0  0.6874
  C  C860  1  0.398500  0.264290  0.618340  1.0  0.6783
  C  C861  1  0.872170  0.279210  0.067580  1.0  -0.1539
  C  C862  1  0.901270  0.283630  0.040880  1.0  0.6978
  C  C863  1  0.864760  0.238990  0.079620  1.0  0.0337
  C  C864  1  0.840130  0.235460  0.105330  1.0  -0.1475
  C  C865  1  0.834060  0.192620  0.119980  1.0  0.6911
  C  C866  1  0.823380  0.271340  0.118830  1.0  -0.0277
  C  C867  1  0.855190  0.315210  0.080730  1.0  -0.0683
  C  C868  1  0.830640  0.311130  0.106350  1.0  0.1031
  C  C869  1  0.827110  0.388510  0.119040  1.0  -0.0464
  C  C870  1  0.803900  0.411470  0.138760  1.0  0.1218
  C  C871  1  0.784030  0.471320  0.170580  1.0  -0.0121
  C  C872  1  0.807230  0.456240  0.146390  1.0  -0.068
  C  C873  1  0.832350  0.483840  0.129780  1.0  -0.072
  C  C874  1  0.786770  0.513970  0.178310  1.0  -0.0698
  C  C875  1  0.810660  0.541790  0.161150  1.0  -0.0105
  C  C876  1  0.861340  0.554200  0.119880  1.0  0.1429
  C  C877  1  0.834820  0.526510  0.137490  1.0  -0.1017
  C  C878  1  0.742660  0.509690  0.225720  1.0  -0.0545
  C  C879  1  0.763200  0.530670  0.203450  1.0  0.2234
  C  C880  1  0.866620  0.597140  0.122010  1.0  -0.1004
  C  C881  1  0.675900  0.489700  0.310520  1.0  -0.1565
  C  C882  1  0.698470  0.493440  0.283830  1.0  -0.075
  C  C883  1  0.684830  0.569120  0.283870  1.0  -0.0078
  C  C884  1  0.702520  0.533360  0.270940  1.0  0.1043
  C  C885  1  0.955880  0.693470  0.063730  1.0  -0.1539
  C  C886  1  0.941200  0.653440  0.071680  1.0  -0.0351
  C  C887  1  0.911200  0.650110  0.094200  1.0  0.0657
  C  C888  1  0.941420  0.729400  0.078350  1.0  0.022
  C  C889  1  0.657560  0.525460  0.323580  1.0  0.0428
  C  C890  1  0.672870  0.447430  0.325670  1.0  0.6958
  C  C891  1  0.912510  0.725260  0.101590  1.0  -0.148
  C  C892  1  0.662380  0.564960  0.310460  1.0  -0.1546
  C  C893  1  0.645370  0.604270  0.325570  1.0  0.697
  C  C894  1  0.897540  0.685560  0.109830  1.0  -0.0769
  C  C895  1  0.989110  0.697430  0.039760  1.0  0.6874
  C  C896  1  0.898500  0.764290  0.118340  1.0  0.6783
  N  N897  1  0.847330  0.685140  0.378780  1.0  0.1025
  N  N898  1  0.844690  0.709700  0.355760  1.0  -0.1792
  N  N899  1  0.883630  0.719400  0.346680  1.0  -0.1979
  N  N900  1  0.038790  0.773820  0.255920  1.0  0.0802
  N  N901  1  0.070020  0.740100  0.290220  1.0  -0.2098
  N  N902  1  0.075590  0.761400  0.264620  1.0  -0.2374
  N  N903  1  0.108770  0.604790  0.398840  1.0  0.1309
  N  N904  1  0.076490  0.597200  0.415070  1.0  -0.2444
  N  N905  1  0.042510  0.614600  0.401560  1.0  -0.1911
  N  N906  1  0.347330  0.185140  0.878780  1.0  0.1025
  N  N907  1  0.344690  0.209700  0.855760  1.0  -0.1792
  N  N908  1  0.383630  0.219400  0.846680  1.0  -0.1979
  N  N909  1  0.538790  0.273820  0.755920  1.0  0.0802
  N  N910  1  0.570020  0.240100  0.790220  1.0  -0.2098
  N  N911  1  0.575590  0.261400  0.764620  1.0  -0.2374
  N  N912  1  0.608770  0.104790  0.898840  1.0  0.1309
  N  N913  1  0.576490  0.097200  0.915070  1.0  -0.2444
  N  N914  1  0.542510  0.114600  0.901560  1.0  -0.1911
  N  N915  1  0.152670  0.314860  0.378780  1.0  0.1044
  N  N916  1  0.155310  0.290300  0.355760  1.0  -0.1808
  N  N917  1  0.116370  0.280600  0.346680  1.0  -0.1964
  N  N918  1  0.961210  0.226180  0.255920  1.0  0.0816
  N  N919  1  0.929980  0.259900  0.290220  1.0  -0.2038
  N  N920  1  0.924410  0.238600  0.264620  1.0  -0.2321
  N  N921  1  0.891230  0.395210  0.398840  1.0  0.1294
  N  N922  1  0.923510  0.402800  0.415070  1.0  -0.2469
  N  N923  1  0.957490  0.385400  0.401560  1.0  -0.1967
  N  N924  1  0.652670  0.814860  0.878780  1.0  0.1044
  N  N925  1  0.655310  0.790300  0.855760  1.0  -0.1808
  N  N926  1  0.616370  0.780600  0.846680  1.0  -0.1964
  N  N927  1  0.461210  0.726180  0.755920  1.0  0.0816
  N  N928  1  0.429980  0.759900  0.790220  1.0  -0.2038
  N  N929  1  0.424410  0.738600  0.764620  1.0  -0.2321
  N  N930  1  0.391230  0.895210  0.898840  1.0  0.1294
  N  N931  1  0.423510  0.902800  0.915070  1.0  -0.2469
  N  N932  1  0.457490  0.885400  0.901560  1.0  -0.1967
  N  N933  1  0.314860  0.847330  0.378780  1.0  0.103
  N  N934  1  0.290300  0.844690  0.355760  1.0  -0.1798
  N  N935  1  0.280600  0.883630  0.346680  1.0  -0.1906
  N  N936  1  0.226180  0.038790  0.255920  1.0  0.081
  N  N937  1  0.259900  0.070020  0.290220  1.0  -0.2035
  N  N938  1  0.238600  0.075590  0.264620  1.0  -0.2307
  N  N939  1  0.395210  0.108770  0.398840  1.0  0.1364
  N  N940  1  0.402800  0.076490  0.415070  1.0  -0.2467
  N  N941  1  0.385400  0.042510  0.401560  1.0  -0.1973
  N  N942  1  0.814860  0.347330  0.878780  1.0  0.103
  N  N943  1  0.790300  0.344690  0.855760  1.0  -0.1798
  N  N944  1  0.780600  0.383630  0.846680  1.0  -0.1906
  N  N945  1  0.726180  0.538790  0.755920  1.0  0.081
  N  N946  1  0.759900  0.570020  0.790220  1.0  -0.2035
  N  N947  1  0.738600  0.575590  0.764620  1.0  -0.2307
  N  N948  1  0.895210  0.608770  0.898840  1.0  0.1364
  N  N949  1  0.902800  0.576490  0.915070  1.0  -0.2467
  N  N950  1  0.885400  0.542510  0.901560  1.0  -0.1973
  N  N951  1  0.685140  0.152670  0.378780  1.0  0.1039
  N  N952  1  0.709700  0.155310  0.355760  1.0  -0.1844
  N  N953  1  0.719400  0.116370  0.346680  1.0  -0.1942
  N  N954  1  0.773820  0.961210  0.255920  1.0  0.0812
  N  N955  1  0.740100  0.929980  0.290220  1.0  -0.2041
  N  N956  1  0.761400  0.924410  0.264620  1.0  -0.2333
  N  N957  1  0.604790  0.891230  0.398840  1.0  0.1351
  N  N958  1  0.597200  0.923510  0.415070  1.0  -0.2461
  N  N959  1  0.614600  0.957490  0.401560  1.0  -0.1964
  N  N960  1  0.185140  0.652670  0.878780  1.0  0.1039
  N  N961  1  0.209700  0.655310  0.855760  1.0  -0.1844
  N  N962  1  0.219400  0.616370  0.846680  1.0  -0.1942
  N  N963  1  0.273820  0.461210  0.755920  1.0  0.0812
  N  N964  1  0.240100  0.429980  0.790220  1.0  -0.2041
  N  N965  1  0.261400  0.424410  0.764620  1.0  -0.2333
  N  N966  1  0.104790  0.391230  0.898840  1.0  0.1351
  N  N967  1  0.097200  0.423510  0.915070  1.0  -0.2461
  N  N968  1  0.114600  0.457490  0.901560  1.0  -0.1964
  N  N969  1  0.152670  0.314860  0.621220  1.0  0.1027
  N  N970  1  0.155310  0.290300  0.644240  1.0  -0.1784
  N  N971  1  0.116370  0.280600  0.653320  1.0  -0.1908
  N  N972  1  0.961210  0.226180  0.744080  1.0  0.0823
  N  N973  1  0.929980  0.259900  0.709780  1.0  -0.2033
  N  N974  1  0.924410  0.238600  0.735380  1.0  -0.2322
  N  N975  1  0.891230  0.395210  0.601160  1.0  0.1298
  N  N976  1  0.923510  0.402800  0.584930  1.0  -0.2512
  N  N977  1  0.957490  0.385400  0.598440  1.0  -0.2017
  N  N978  1  0.652670  0.814860  0.121220  1.0  0.1027
  N  N979  1  0.655310  0.790300  0.144240  1.0  -0.1784
  N  N980  1  0.616370  0.780600  0.153320  1.0  -0.1908
  N  N981  1  0.461210  0.726180  0.244080  1.0  0.0823
  N  N982  1  0.429980  0.759900  0.209780  1.0  -0.2033
  N  N983  1  0.424410  0.738600  0.235380  1.0  -0.2322
  N  N984  1  0.391230  0.895210  0.101160  1.0  0.1298
  N  N985  1  0.423510  0.902800  0.084930  1.0  -0.2512
  N  N986  1  0.457490  0.885400  0.098440  1.0  -0.2017
  N  N987  1  0.847330  0.685140  0.621220  1.0  0.1007
  N  N988  1  0.844690  0.709700  0.644240  1.0  -0.1772
  N  N989  1  0.883630  0.719400  0.653320  1.0  -0.19
  N  N990  1  0.038790  0.773820  0.744080  1.0  0.0804
  N  N991  1  0.070020  0.740100  0.709780  1.0  -0.2112
  N  N992  1  0.075590  0.761400  0.735380  1.0  -0.2376
  N  N993  1  0.108770  0.604790  0.601160  1.0  0.1309
  N  N994  1  0.076490  0.597200  0.584930  1.0  -0.2499
  N  N995  1  0.042510  0.614600  0.598440  1.0  -0.1941
  N  N996  1  0.347330  0.185140  0.121220  1.0  0.1007
  N  N997  1  0.344690  0.209700  0.144240  1.0  -0.1772
  N  N998  1  0.383630  0.219400  0.153320  1.0  -0.19
  N  N999  1  0.538790  0.273820  0.244080  1.0  0.0804
  N  N1000  1  0.570020  0.240100  0.209780  1.0  -0.2112
  N  N1001  1  0.575590  0.261400  0.235380  1.0  -0.2376
  N  N1002  1  0.608770  0.104790  0.101160  1.0  0.1309
  N  N1003  1  0.576490  0.097200  0.084930  1.0  -0.2499
  N  N1004  1  0.542510  0.114600  0.098440  1.0  -0.1941
  N  N1005  1  0.685140  0.152670  0.621220  1.0  0.1024
  N  N1006  1  0.709700  0.155310  0.644240  1.0  -0.1819
  N  N1007  1  0.719400  0.116370  0.653320  1.0  -0.189
  N  N1008  1  0.773820  0.961210  0.744080  1.0  0.0819
  N  N1009  1  0.740100  0.929980  0.709780  1.0  -0.2047
  N  N1010  1  0.761400  0.924410  0.735380  1.0  -0.2338
  N  N1011  1  0.604790  0.891230  0.601160  1.0  0.1354
  N  N1012  1  0.597200  0.923510  0.584930  1.0  -0.2511
  N  N1013  1  0.614600  0.957490  0.598440  1.0  -0.2019
  N  N1014  1  0.185140  0.652670  0.121220  1.0  0.1024
  N  N1015  1  0.209700  0.655310  0.144240  1.0  -0.1819
  N  N1016  1  0.219400  0.616370  0.153320  1.0  -0.189
  N  N1017  1  0.273820  0.461210  0.244080  1.0  0.0819
  N  N1018  1  0.240100  0.429980  0.209780  1.0  -0.2047
  N  N1019  1  0.261400  0.424410  0.235380  1.0  -0.2338
  N  N1020  1  0.104790  0.391230  0.101160  1.0  0.1354
  N  N1021  1  0.097200  0.423510  0.084930  1.0  -0.2511
  N  N1022  1  0.114600  0.457490  0.098440  1.0  -0.2019
  N  N1023  1  0.314860  0.847330  0.621220  1.0  0.1016
  N  N1024  1  0.290300  0.844690  0.644240  1.0  -0.1766
  N  N1025  1  0.280600  0.883630  0.653320  1.0  -0.1854
  N  N1026  1  0.226180  0.038790  0.744080  1.0  0.0815
  N  N1027  1  0.259900  0.070020  0.709780  1.0  -0.2049
  N  N1028  1  0.238600  0.075590  0.735380  1.0  -0.2305
  N  N1029  1  0.395210  0.108770  0.601160  1.0  0.1366
  N  N1030  1  0.402800  0.076490  0.584930  1.0  -0.2506
  N  N1031  1  0.385400  0.042510  0.598440  1.0  -0.2016
  N  N1032  1  0.814860  0.347330  0.121220  1.0  0.1016
  N  N1033  1  0.790300  0.344690  0.144240  1.0  -0.1766
  N  N1034  1  0.780600  0.383630  0.153320  1.0  -0.1854
  N  N1035  1  0.726180  0.538790  0.244080  1.0  0.0815
  N  N1036  1  0.759900  0.570020  0.209780  1.0  -0.2049
  N  N1037  1  0.738600  0.575590  0.235380  1.0  -0.2305
  N  N1038  1  0.895210  0.608770  0.101160  1.0  0.1366
  N  N1039  1  0.902800  0.576490  0.084930  1.0  -0.2506
  N  N1040  1  0.885400  0.542510  0.098440  1.0  -0.2016
  O  O1041  1  0.691690  0.686910  0.356590  1.0  -0.5637
  O  O1042  1  0.661460  0.648570  0.392620  1.0  -0.5646
  O  O1043  1  0.750400  0.582740  0.469130  1.0  -0.5704
  O  O1044  1  0.820810  0.592690  0.468700  1.0  -0.5738
  O  O1045  1  0.575810  0.607820  0.407880  1.0  -0.668
  O  O1046  1  0.667000  0.734130  0.298610  1.0  -0.6613
  O  O1047  1  0.139490  0.847030  0.186760  1.0  -0.568
  O  O1048  1  0.916900  0.806690  0.185520  1.0  -0.5671
  O  O1049  1  0.945410  0.849790  0.151220  1.0  -0.5719
  O  O1050  1  0.164220  0.494000  0.469580  1.0  -0.5707
  O  O1051  1  0.098500  0.874300  0.150620  1.0  -0.5626
  O  O1052  1  0.234810  0.503350  0.469210  1.0  -0.5771
  O  O1053  1  0.299570  0.590510  0.392090  1.0  -0.562
  O  O1054  1  0.258440  0.622790  0.358160  1.0  -0.5623
  O  O1055  1  0.191690  0.186910  0.856590  1.0  -0.5637
  O  O1056  1  0.161460  0.148570  0.892620  1.0  -0.5646
  O  O1057  1  0.250400  0.082740  0.969130  1.0  -0.5704
  O  O1058  1  0.320810  0.092690  0.968700  1.0  -0.5738
  O  O1059  1  0.075810  0.107820  0.907880  1.0  -0.668
  O  O1060  1  0.167000  0.234130  0.798610  1.0  -0.6613
  O  O1061  1  0.639490  0.347030  0.686760  1.0  -0.568
  O  O1062  1  0.416900  0.306690  0.685520  1.0  -0.5671
  O  O1063  1  0.445410  0.349790  0.651220  1.0  -0.5719
  O  O1064  1  0.664220  0.994000  0.969580  1.0  -0.5707
  O  O1065  1  0.598500  0.374300  0.650620  1.0  -0.5626
  O  O1066  1  0.734810  0.003350  0.969210  1.0  -0.5771
  O  O1067  1  0.799570  0.090510  0.892090  1.0  -0.562
  O  O1068  1  0.758440  0.122790  0.858160  1.0  -0.5623
  O  O1069  1  0.308310  0.313090  0.356590  1.0  -0.5645
  O  O1070  1  0.338540  0.351430  0.392620  1.0  -0.5641
  O  O1071  1  0.249600  0.417260  0.469130  1.0  -0.5707
  O  O1072  1  0.179190  0.407310  0.468700  1.0  -0.5736
  O  O1073  1  0.424190  0.392180  0.407880  1.0  -0.6698
  O  O1074  1  0.333000  0.265870  0.298610  1.0  -0.6613
  O  O1075  1  0.860510  0.152970  0.186760  1.0  -0.5685
  O  O1076  1  0.083100  0.193310  0.185520  1.0  -0.5667
  O  O1077  1  0.054590  0.150210  0.151220  1.0  -0.5728
  O  O1078  1  0.835780  0.506000  0.469580  1.0  -0.5705
  O  O1079  1  0.901500  0.125700  0.150620  1.0  -0.563
  O  O1080  1  0.765190  0.496650  0.469210  1.0  -0.5769
  O  O1081  1  0.700430  0.409490  0.392090  1.0  -0.5621
  O  O1082  1  0.741560  0.377210  0.358160  1.0  -0.5632
  O  O1083  1  0.808310  0.813090  0.856590  1.0  -0.5645
  O  O1084  1  0.838540  0.851430  0.892620  1.0  -0.5641
  O  O1085  1  0.749600  0.917260  0.969130  1.0  -0.5707
  O  O1086  1  0.679190  0.907310  0.968700  1.0  -0.5736
  O  O1087  1  0.924190  0.892180  0.907880  1.0  -0.6698
  O  O1088  1  0.833000  0.765870  0.798610  1.0  -0.6613
  O  O1089  1  0.360510  0.652970  0.686760  1.0  -0.5685
  O  O1090  1  0.583100  0.693310  0.685520  1.0  -0.5667
  O  O1091  1  0.554590  0.650210  0.651220  1.0  -0.5728
  O  O1092  1  0.335780  0.006000  0.969580  1.0  -0.5705
  O  O1093  1  0.401500  0.625700  0.650620  1.0  -0.563
  O  O1094  1  0.265190  0.996650  0.969210  1.0  -0.5769
  O  O1095  1  0.200430  0.909490  0.892090  1.0  -0.5621
  O  O1096  1  0.241560  0.877210  0.858160  1.0  -0.5632
  O  O1097  1  0.313090  0.691690  0.356590  1.0  -0.5641
  O  O1098  1  0.351430  0.661460  0.392620  1.0  -0.5655
  O  O1099  1  0.417260  0.750400  0.469130  1.0  -0.571
  O  O1100  1  0.407310  0.820810  0.468700  1.0  -0.5754
  O  O1101  1  0.392180  0.575810  0.407880  1.0  -0.6698
  O  O1102  1  0.265870  0.667000  0.298610  1.0  -0.6646
  O  O1103  1  0.152970  0.139490  0.186760  1.0  -0.5671
  O  O1104  1  0.193310  0.916900  0.185520  1.0  -0.5692
  O  O1105  1  0.150210  0.945410  0.151220  1.0  -0.5723
  O  O1106  1  0.506000  0.164220  0.469580  1.0  -0.5702
  O  O1107  1  0.125700  0.098500  0.150620  1.0  -0.5622
  O  O1108  1  0.496650  0.234810  0.469210  1.0  -0.5764
  O  O1109  1  0.409490  0.299570  0.392090  1.0  -0.5604
  O  O1110  1  0.377210  0.258440  0.358160  1.0  -0.5624
  O  O1111  1  0.813090  0.191690  0.856590  1.0  -0.5641
  O  O1112  1  0.851430  0.161460  0.892620  1.0  -0.5655
  O  O1113  1  0.917260  0.250400  0.969130  1.0  -0.571
  O  O1114  1  0.907310  0.320810  0.968700  1.0  -0.5754
  O  O1115  1  0.892180  0.075810  0.907880  1.0  -0.6698
  O  O1116  1  0.765870  0.167000  0.798610  1.0  -0.6646
  O  O1117  1  0.652970  0.639490  0.686760  1.0  -0.5671
  O  O1118  1  0.693310  0.416900  0.685520  1.0  -0.5692
  O  O1119  1  0.650210  0.445410  0.651220  1.0  -0.5723
  O  O1120  1  0.006000  0.664220  0.969580  1.0  -0.5702
  O  O1121  1  0.625700  0.598500  0.650620  1.0  -0.5622
  O  O1122  1  0.996650  0.734810  0.969210  1.0  -0.5764
  O  O1123  1  0.909490  0.799570  0.892090  1.0  -0.5604
  O  O1124  1  0.877210  0.758440  0.858160  1.0  -0.5624
  O  O1125  1  0.686910  0.308310  0.356590  1.0  -0.5643
  O  O1126  1  0.648570  0.338540  0.392620  1.0  -0.5652
  O  O1127  1  0.582740  0.249600  0.469130  1.0  -0.5713
  O  O1128  1  0.592690  0.179190  0.468700  1.0  -0.5749
  O  O1129  1  0.607820  0.424190  0.407880  1.0  -0.6629
  O  O1130  1  0.734130  0.333000  0.298610  1.0  -0.6603
  O  O1131  1  0.847030  0.860510  0.186760  1.0  -0.5682
  O  O1132  1  0.806690  0.083100  0.185520  1.0  -0.5694
  O  O1133  1  0.849790  0.054590  0.151220  1.0  -0.5737
  O  O1134  1  0.494000  0.835780  0.469580  1.0  -0.5695
  O  O1135  1  0.874300  0.901500  0.150620  1.0  -0.5622
  O  O1136  1  0.503350  0.765190  0.469210  1.0  -0.576
  O  O1137  1  0.590510  0.700430  0.392090  1.0  -0.5622
  O  O1138  1  0.622790  0.741560  0.358160  1.0  -0.5618
  O  O1139  1  0.186910  0.808310  0.856590  1.0  -0.5643
  O  O1140  1  0.148570  0.838540  0.892620  1.0  -0.5652
  O  O1141  1  0.082740  0.749600  0.969130  1.0  -0.5713
  O  O1142  1  0.092690  0.679190  0.968700  1.0  -0.5749
  O  O1143  1  0.107820  0.924190  0.907880  1.0  -0.6629
  O  O1144  1  0.234130  0.833000  0.798610  1.0  -0.6603
  O  O1145  1  0.347030  0.360510  0.686760  1.0  -0.5682
  O  O1146  1  0.306690  0.583100  0.685520  1.0  -0.5694
  O  O1147  1  0.349790  0.554590  0.651220  1.0  -0.5737
  O  O1148  1  0.994000  0.335780  0.969580  1.0  -0.5695
  O  O1149  1  0.374300  0.401500  0.650620  1.0  -0.5622
  O  O1150  1  0.003350  0.265190  0.969210  1.0  -0.576
  O  O1151  1  0.090510  0.200430  0.892090  1.0  -0.5622
  O  O1152  1  0.122790  0.241560  0.858160  1.0  -0.5618
  O  O1153  1  0.308310  0.313090  0.643410  1.0  -0.564
  O  O1154  1  0.338540  0.351430  0.607380  1.0  -0.5645
  O  O1155  1  0.249600  0.417260  0.530870  1.0  -0.5707
  O  O1156  1  0.179190  0.407310  0.531300  1.0  -0.5735
  O  O1157  1  0.424190  0.392180  0.592120  1.0  -0.6676
  O  O1158  1  0.333000  0.265870  0.701390  1.0  -0.6615
  O  O1159  1  0.860510  0.152970  0.813240  1.0  -0.5674
  O  O1160  1  0.083100  0.193310  0.814480  1.0  -0.5668
  O  O1161  1  0.054590  0.150210  0.848780  1.0  -0.5728
  O  O1162  1  0.835780  0.506000  0.530420  1.0  -0.5708
  O  O1163  1  0.901500  0.125700  0.849380  1.0  -0.5642
  O  O1164  1  0.765190  0.496650  0.530790  1.0  -0.5772
  O  O1165  1  0.700430  0.409490  0.607910  1.0  -0.5599
  O  O1166  1  0.741560  0.377210  0.641840  1.0  -0.5649
  O  O1167  1  0.808310  0.813090  0.143410  1.0  -0.564
  O  O1168  1  0.838540  0.851430  0.107380  1.0  -0.5645
  O  O1169  1  0.749600  0.917260  0.030870  1.0  -0.5707
  O  O1170  1  0.679190  0.907310  0.031300  1.0  -0.5735
  O  O1171  1  0.924190  0.892180  0.092120  1.0  -0.6676
  O  O1172  1  0.833000  0.765870  0.201390  1.0  -0.6615
  O  O1173  1  0.360510  0.652970  0.313240  1.0  -0.5674
  O  O1174  1  0.583100  0.693310  0.314480  1.0  -0.5668
  O  O1175  1  0.554590  0.650210  0.348780  1.0  -0.5728
  O  O1176  1  0.335780  0.006000  0.030420  1.0  -0.5708
  O  O1177  1  0.401500  0.625700  0.349380  1.0  -0.5642
  O  O1178  1  0.265190  0.996650  0.030790  1.0  -0.5772
  O  O1179  1  0.200430  0.909490  0.107910  1.0  -0.5599
  O  O1180  1  0.241560  0.877210  0.141840  1.0  -0.5649
  O  O1181  1  0.691690  0.686910  0.643410  1.0  -0.5643
  O  O1182  1  0.661460  0.648570  0.607380  1.0  -0.5641
  O  O1183  1  0.750400  0.582740  0.530870  1.0  -0.5706
  O  O1184  1  0.820810  0.592690  0.531300  1.0  -0.5735
  O  O1185  1  0.575810  0.607820  0.592120  1.0  -0.666
  O  O1186  1  0.667000  0.734130  0.701390  1.0  -0.6621
  O  O1187  1  0.139490  0.847030  0.813240  1.0  -0.5678
  O  O1188  1  0.916900  0.806690  0.814480  1.0  -0.5671
  O  O1189  1  0.945410  0.849790  0.848780  1.0  -0.5735
  O  O1190  1  0.164220  0.494000  0.530420  1.0  -0.571
  O  O1191  1  0.098500  0.874300  0.849380  1.0  -0.5636
  O  O1192  1  0.234810  0.503350  0.530790  1.0  -0.577
  O  O1193  1  0.299570  0.590510  0.607910  1.0  -0.5612
  O  O1194  1  0.258440  0.622790  0.641840  1.0  -0.5632
  O  O1195  1  0.191690  0.186910  0.143410  1.0  -0.5643
  O  O1196  1  0.161460  0.148570  0.107380  1.0  -0.5641
  O  O1197  1  0.250400  0.082740  0.030870  1.0  -0.5706
  O  O1198  1  0.320810  0.092690  0.031300  1.0  -0.5735
  O  O1199  1  0.075810  0.107820  0.092120  1.0  -0.666
  O  O1200  1  0.167000  0.234130  0.201390  1.0  -0.6621
  O  O1201  1  0.639490  0.347030  0.313240  1.0  -0.5678
  O  O1202  1  0.416900  0.306690  0.314480  1.0  -0.5671
  O  O1203  1  0.445410  0.349790  0.348780  1.0  -0.5735
  O  O1204  1  0.664220  0.994000  0.030420  1.0  -0.571
  O  O1205  1  0.598500  0.374300  0.349380  1.0  -0.5636
  O  O1206  1  0.734810  0.003350  0.030790  1.0  -0.577
  O  O1207  1  0.799570  0.090510  0.107910  1.0  -0.5612
  O  O1208  1  0.758440  0.122790  0.141840  1.0  -0.5632
  O  O1209  1  0.686910  0.308310  0.643410  1.0  -0.564
  O  O1210  1  0.648570  0.338540  0.607380  1.0  -0.5651
  O  O1211  1  0.582740  0.249600  0.530870  1.0  -0.5714
  O  O1212  1  0.592690  0.179190  0.531300  1.0  -0.5746
  O  O1213  1  0.607820  0.424190  0.592120  1.0  -0.662
  O  O1214  1  0.734130  0.333000  0.701390  1.0  -0.6609
  O  O1215  1  0.847030  0.860510  0.813240  1.0  -0.5678
  O  O1216  1  0.806690  0.083100  0.814480  1.0  -0.5691
  O  O1217  1  0.849790  0.054590  0.848780  1.0  -0.5737
  O  O1218  1  0.494000  0.835780  0.530420  1.0  -0.5698
  O  O1219  1  0.874300  0.901500  0.849380  1.0  -0.5631
  O  O1220  1  0.503350  0.765190  0.530790  1.0  -0.5764
  O  O1221  1  0.590510  0.700430  0.607910  1.0  -0.5599
  O  O1222  1  0.622790  0.741560  0.641840  1.0  -0.5629
  O  O1223  1  0.186910  0.808310  0.143410  1.0  -0.564
  O  O1224  1  0.148570  0.838540  0.107380  1.0  -0.5651
  O  O1225  1  0.082740  0.749600  0.030870  1.0  -0.5714
  O  O1226  1  0.092690  0.679190  0.031300  1.0  -0.5746
  O  O1227  1  0.107820  0.924190  0.092120  1.0  -0.662
  O  O1228  1  0.234130  0.833000  0.201390  1.0  -0.6609
  O  O1229  1  0.347030  0.360510  0.313240  1.0  -0.5678
  O  O1230  1  0.306690  0.583100  0.314480  1.0  -0.5691
  O  O1231  1  0.349790  0.554590  0.348780  1.0  -0.5737
  O  O1232  1  0.994000  0.335780  0.030420  1.0  -0.5698
  O  O1233  1  0.374300  0.401500  0.349380  1.0  -0.5631
  O  O1234  1  0.003350  0.265190  0.030790  1.0  -0.5764
  O  O1235  1  0.090510  0.200430  0.107910  1.0  -0.5599
  O  O1236  1  0.122790  0.241560  0.141840  1.0  -0.5629
  O  O1237  1  0.313090  0.691690  0.643410  1.0  -0.5644
  O  O1238  1  0.351430  0.661460  0.607380  1.0  -0.5649
  O  O1239  1  0.417260  0.750400  0.530870  1.0  -0.5711
  O  O1240  1  0.407310  0.820810  0.531300  1.0  -0.5752
  O  O1241  1  0.392180  0.575810  0.592120  1.0  -0.6673
  O  O1242  1  0.265870  0.667000  0.701390  1.0  -0.6651
  O  O1243  1  0.152970  0.139490  0.813240  1.0  -0.5675
  O  O1244  1  0.193310  0.916900  0.814480  1.0  -0.5696
  O  O1245  1  0.150210  0.945410  0.848780  1.0  -0.5732
  O  O1246  1  0.506000  0.164220  0.530420  1.0  -0.5704
  O  O1247  1  0.125700  0.098500  0.849380  1.0  -0.563
  O  O1248  1  0.496650  0.234810  0.530790  1.0  -0.5766
  O  O1249  1  0.409490  0.299570  0.607910  1.0  -0.5595
  O  O1250  1  0.377210  0.258440  0.641840  1.0  -0.5635
  O  O1251  1  0.813090  0.191690  0.143410  1.0  -0.5644
  O  O1252  1  0.851430  0.161460  0.107380  1.0  -0.5649
  O  O1253  1  0.917260  0.250400  0.030870  1.0  -0.5711
  O  O1254  1  0.907310  0.320810  0.031300  1.0  -0.5752
  O  O1255  1  0.892180  0.075810  0.092120  1.0  -0.6673
  O  O1256  1  0.765870  0.167000  0.201390  1.0  -0.6651
  O  O1257  1  0.652970  0.639490  0.313240  1.0  -0.5675
  O  O1258  1  0.693310  0.416900  0.314480  1.0  -0.5696
  O  O1259  1  0.650210  0.445410  0.348780  1.0  -0.5732
  O  O1260  1  0.006000  0.664220  0.030420  1.0  -0.5704
  O  O1261  1  0.625700  0.598500  0.349380  1.0  -0.563
  O  O1262  1  0.996650  0.734810  0.030790  1.0  -0.5766
  O  O1263  1  0.909490  0.799570  0.107910  1.0  -0.5595
  O  O1264  1  0.877210  0.758440  0.141840  1.0  -0.5635
