# generated using pymatgen
data_Zn3H26C48(N5O7)2
_symmetry_space_group_name_H-M   'P 1'
_cell_length_a   35.90960000
_cell_length_b   35.90960000
_cell_length_c   51.35330000
_cell_angle_alpha   90.00000000
_cell_angle_beta   90.00000000
_cell_angle_gamma   90.00000000
_symmetry_Int_Tables_number   1
_chemical_formula_structural   Zn3H26C48(N5O7)2
_chemical_formula_sum   'Zn48 H416 C768 N160 O224'
_cell_volume   66220.04810834
_cell_formula_units_Z   16
loop_
 _symmetry_equiv_pos_site_id
 _symmetry_equiv_pos_as_xyz
  1  'x, y, z'
loop_
 _atom_site_type_symbol
 _atom_site_label
 _atom_site_symmetry_multiplicity
 _atom_site_fract_x
 _atom_site_fract_y
 _atom_site_fract_z
 _atom_site_occupancy
 _atom_site_charge
  Zn  Zn1  1  0.916080  0.132760  0.390140  1.0  1.0507
  Zn  Zn2  1  0.887890  0.176820  0.353660  1.0  1.0673
  Zn  Zn3  1  0.416080  0.632760  0.890140  1.0  1.0507
  Zn  Zn4  1  0.387890  0.676820  0.853660  1.0  1.0673
  Zn  Zn5  1  0.083920  0.867240  0.390140  1.0  1.0499
  Zn  Zn6  1  0.112110  0.823180  0.353660  1.0  1.0653
  Zn  Zn7  1  0.583920  0.367240  0.890140  1.0  1.0499
  Zn  Zn8  1  0.612110  0.323180  0.853660  1.0  1.0653
  Zn  Zn9  1  0.867240  0.916080  0.390140  1.0  1.0499
  Zn  Zn10  1  0.823180  0.887890  0.353660  1.0  1.0695
  Zn  Zn11  1  0.367240  0.416080  0.890140  1.0  1.0499
  Zn  Zn12  1  0.323180  0.387890  0.853660  1.0  1.0695
  Zn  Zn13  1  0.132760  0.083920  0.390140  1.0  1.0508
  Zn  Zn14  1  0.176820  0.112110  0.353660  1.0  1.0657
  Zn  Zn15  1  0.632760  0.583920  0.890140  1.0  1.0508
  Zn  Zn16  1  0.676820  0.612110  0.853660  1.0  1.0657
  Zn  Zn17  1  0.083920  0.867240  0.609860  1.0  1.0521
  Zn  Zn18  1  0.112110  0.823180  0.646340  1.0  1.0655
  Zn  Zn19  1  0.583920  0.367240  0.109860  1.0  1.0521
  Zn  Zn20  1  0.612110  0.323180  0.146340  1.0  1.0655
  Zn  Zn21  1  0.916080  0.132760  0.609860  1.0  1.0511
  Zn  Zn22  1  0.887890  0.176820  0.646340  1.0  1.0657
  Zn  Zn23  1  0.416080  0.632760  0.109860  1.0  1.0511
  Zn  Zn24  1  0.387890  0.676820  0.146340  1.0  1.0657
  Zn  Zn25  1  0.132760  0.083920  0.609860  1.0  1.0525
  Zn  Zn26  1  0.176820  0.112110  0.646340  1.0  1.0653
  Zn  Zn27  1  0.632760  0.583920  0.109860  1.0  1.0525
  Zn  Zn28  1  0.676820  0.612110  0.146340  1.0  1.0653
  Zn  Zn29  1  0.867240  0.916080  0.609860  1.0  1.0506
  Zn  Zn30  1  0.823180  0.887890  0.646340  1.0  1.0679
  Zn  Zn31  1  0.367240  0.416080  0.109860  1.0  1.0506
  Zn  Zn32  1  0.323180  0.387890  0.146340  1.0  1.0679
  Zn  Zn33  1  0.783220  0.046380  0.500000  1.0  1.0334
  Zn  Zn34  1  0.710780  0.061460  0.500000  1.0  1.0624
  Zn  Zn35  1  0.283220  0.546380  0.000000  1.0  1.0334
  Zn  Zn36  1  0.210780  0.561460  0.000000  1.0  1.0697
  Zn  Zn37  1  0.216780  0.953620  0.500000  1.0  1.0312
  Zn  Zn38  1  0.289220  0.938540  0.500000  1.0  1.063
  Zn  Zn39  1  0.716780  0.453620  0.000000  1.0  1.0312
  Zn  Zn40  1  0.789220  0.438540  0.000000  1.0  1.0711
  Zn  Zn41  1  0.953620  0.783220  0.500000  1.0  1.0303
  Zn  Zn42  1  0.938540  0.710780  0.500000  1.0  1.0644
  Zn  Zn43  1  0.453620  0.283220  0.000000  1.0  1.0303
  Zn  Zn44  1  0.438540  0.210780  0.000000  1.0  1.0718
  Zn  Zn45  1  0.046380  0.216780  0.500000  1.0  1.0307
  Zn  Zn46  1  0.061460  0.289220  0.500000  1.0  1.0628
  Zn  Zn47  1  0.546380  0.716780  0.000000  1.0  1.0307
  Zn  Zn48  1  0.561460  0.789220  0.000000  1.0  1.0699
  H  H49  1  0.929400  0.080100  0.421900  1.0  0.4697
  H  H50  1  0.843400  0.204700  0.320700  1.0  0.4458
  H  H51  1  0.709000  0.139700  0.437100  1.0  0.1227
  H  H52  1  0.819400  0.119100  0.438400  1.0  0.1141
  H  H53  1  0.775400  0.183500  0.381800  1.0  0.1176
  H  H54  1  0.662300  0.146600  0.402500  1.0  0.1146
  H  H55  1  0.602400  0.143300  0.381200  1.0  0.0886
  H  H56  1  0.609100  0.250500  0.366000  1.0  0.119
  H  H57  1  0.548400  0.248100  0.351600  1.0  0.0888
  H  H58  1  0.541600  0.142500  0.366900  1.0  0.102
  H  H59  1  0.534200  0.209300  0.307000  1.0  0.0832
  H  H60  1  0.443700  0.235300  0.342200  1.0  0.1114
  H  H61  1  0.439100  0.170200  0.335500  1.0  0.0792
  H  H62  1  0.517300  0.241200  0.270400  1.0  0.1068
  H  H63  1  0.428600  0.273600  0.307000  1.0  0.1092
  H  H64  1  0.397600  0.129900  0.355500  1.0  0.101
  H  H65  1  0.447000  0.152700  0.421300  1.0  0.1228
  H  H66  1  0.497300  0.178800  0.397300  1.0  0.0992
  H  H67  1  0.502300  0.285400  0.236200  1.0  0.1038
  H  H68  1  0.345900  0.105600  0.381600  1.0  0.1105
  H  H69  1  0.515800  0.318100  0.198200  1.0  0.1245
  H  H70  1  0.406700  0.343300  0.197000  1.0  0.1134
  H  H71  1  0.215400  0.029800  0.435900  1.0  0.1135
  H  H72  1  0.283000  0.092900  0.392400  1.0  0.1193
  H  H73  1  0.325500  0.027200  0.448300  1.0  0.1141
  H  H74  1  0.472400  0.375400  0.138100  1.0  0.102
  H  H75  1  0.429400  0.580100  0.921900  1.0  0.4697
  H  H76  1  0.343400  0.704700  0.820700  1.0  0.4458
  H  H77  1  0.209000  0.639700  0.937100  1.0  0.1227
  H  H78  1  0.319400  0.619100  0.938400  1.0  0.1141
  H  H79  1  0.275400  0.683500  0.881800  1.0  0.1176
  H  H80  1  0.162300  0.646600  0.902500  1.0  0.1146
  H  H81  1  0.102400  0.643300  0.881200  1.0  0.0886
  H  H82  1  0.109100  0.750500  0.866000  1.0  0.1203
  H  H83  1  0.048400  0.748100  0.851600  1.0  0.088
  H  H84  1  0.041600  0.642500  0.866900  1.0  0.1022
  H  H85  1  0.034200  0.709300  0.807000  1.0  0.0832
  H  H86  1  0.943700  0.735300  0.842200  1.0  0.1114
  H  H87  1  0.939100  0.670200  0.835500  1.0  0.0786
  H  H88  1  0.017300  0.741200  0.770400  1.0  0.1075
  H  H89  1  0.928600  0.773600  0.807000  1.0  0.1091
  H  H90  1  0.897600  0.629900  0.855500  1.0  0.101
  H  H91  1  0.947000  0.652700  0.921300  1.0  0.1231
  H  H92  1  0.997300  0.678800  0.897300  1.0  0.0994
  H  H93  1  0.002300  0.785400  0.736200  1.0  0.1038
  H  H94  1  0.845900  0.605600  0.881600  1.0  0.1105
  H  H95  1  0.015800  0.818100  0.698200  1.0  0.1245
  H  H96  1  0.906700  0.843300  0.697000  1.0  0.1134
  H  H97  1  0.715400  0.529800  0.935900  1.0  0.1135
  H  H98  1  0.783000  0.592900  0.892400  1.0  0.1193
  H  H99  1  0.825500  0.527200  0.948300  1.0  0.1141
  H  H100  1  0.972400  0.875400  0.638100  1.0  0.102
  H  H101  1  0.070600  0.919900  0.421900  1.0  0.4666
  H  H102  1  0.156600  0.795300  0.320700  1.0  0.443
  H  H103  1  0.291000  0.860300  0.437100  1.0  0.1228
  H  H104  1  0.180600  0.880900  0.438400  1.0  0.114
  H  H105  1  0.224600  0.816500  0.381800  1.0  0.1178
  H  H106  1  0.337700  0.853400  0.402500  1.0  0.1151
  H  H107  1  0.397600  0.856700  0.381200  1.0  0.0886
  H  H108  1  0.390900  0.749500  0.366000  1.0  0.119
  H  H109  1  0.451600  0.751900  0.351600  1.0  0.0886
  H  H110  1  0.458400  0.857500  0.366900  1.0  0.1023
  H  H111  1  0.465800  0.790700  0.307000  1.0  0.0831
  H  H112  1  0.556300  0.764700  0.342200  1.0  0.1109
  H  H113  1  0.560900  0.829800  0.335500  1.0  0.0781
  H  H114  1  0.482700  0.758800  0.270400  1.0  0.1065
  H  H115  1  0.571400  0.726400  0.307000  1.0  0.109
  H  H116  1  0.602400  0.870100  0.355500  1.0  0.1013
  H  H117  1  0.553000  0.847300  0.421300  1.0  0.1234
  H  H118  1  0.502700  0.821200  0.397300  1.0  0.0994
  H  H119  1  0.497700  0.714600  0.236200  1.0  0.1049
  H  H120  1  0.654100  0.894400  0.381600  1.0  0.1104
  H  H121  1  0.484200  0.681900  0.198200  1.0  0.1251
  H  H122  1  0.593300  0.656700  0.197000  1.0  0.1135
  H  H123  1  0.784600  0.970200  0.435900  1.0  0.1138
  H  H124  1  0.717000  0.907100  0.392400  1.0  0.1201
  H  H125  1  0.674500  0.972800  0.448300  1.0  0.1132
  H  H126  1  0.527600  0.624600  0.138100  1.0  0.1021
  H  H127  1  0.570600  0.419900  0.921900  1.0  0.4666
  H  H128  1  0.656600  0.295300  0.820700  1.0  0.443
  H  H129  1  0.791000  0.360300  0.937100  1.0  0.1228
  H  H130  1  0.680600  0.380900  0.938400  1.0  0.114
  H  H131  1  0.724600  0.316500  0.881800  1.0  0.1178
  H  H132  1  0.837700  0.353400  0.902500  1.0  0.1151
  H  H133  1  0.897600  0.356700  0.881200  1.0  0.0886
  H  H134  1  0.890900  0.249500  0.866000  1.0  0.1205
  H  H135  1  0.951600  0.251900  0.851600  1.0  0.0877
  H  H136  1  0.958400  0.357500  0.866900  1.0  0.1022
  H  H137  1  0.965800  0.290700  0.807000  1.0  0.0831
  H  H138  1  0.056300  0.264700  0.842200  1.0  0.1109
  H  H139  1  0.060900  0.329800  0.835500  1.0  0.0774
  H  H140  1  0.982700  0.258800  0.770400  1.0  0.1071
  H  H141  1  0.071400  0.226400  0.807000  1.0  0.1087
  H  H142  1  0.102400  0.370100  0.855500  1.0  0.1013
  H  H143  1  0.053000  0.347300  0.921300  1.0  0.1237
  H  H144  1  0.002700  0.321200  0.897300  1.0  0.0997
  H  H145  1  0.997700  0.214600  0.736200  1.0  0.1049
  H  H146  1  0.154100  0.394400  0.881600  1.0  0.1104
  H  H147  1  0.984200  0.181900  0.698200  1.0  0.1251
  H  H148  1  0.093300  0.156700  0.697000  1.0  0.1135
  H  H149  1  0.284600  0.470200  0.935900  1.0  0.1138
  H  H150  1  0.217000  0.407100  0.892400  1.0  0.1201
  H  H151  1  0.174500  0.472800  0.948300  1.0  0.1132
  H  H152  1  0.027600  0.124600  0.638100  1.0  0.1021
  H  H153  1  0.919900  0.929400  0.421900  1.0  0.4638
  H  H154  1  0.795300  0.843400  0.320700  1.0  0.447
  H  H155  1  0.860300  0.709000  0.437100  1.0  0.1224
  H  H156  1  0.880900  0.819400  0.438400  1.0  0.1143
  H  H157  1  0.816500  0.775400  0.381800  1.0  0.118
  H  H158  1  0.853400  0.662300  0.402500  1.0  0.1142
  H  H159  1  0.856700  0.602400  0.381200  1.0  0.0872
  H  H160  1  0.749500  0.609100  0.366000  1.0  0.1201
  H  H161  1  0.751900  0.548400  0.351600  1.0  0.0913
  H  H162  1  0.857500  0.541600  0.366900  1.0  0.1023
  H  H163  1  0.790700  0.534200  0.307000  1.0  0.0812
  H  H164  1  0.764700  0.443700  0.342200  1.0  0.1111
  H  H165  1  0.829800  0.439100  0.335500  1.0  0.0777
  H  H166  1  0.758800  0.517300  0.270400  1.0  0.1065
  H  H167  1  0.726400  0.428600  0.307000  1.0  0.108
  H  H168  1  0.870100  0.397600  0.355500  1.0  0.1013
  H  H169  1  0.847300  0.447000  0.421300  1.0  0.1232
  H  H170  1  0.821200  0.497300  0.397300  1.0  0.0983
  H  H171  1  0.714600  0.502300  0.236200  1.0  0.1033
  H  H172  1  0.894400  0.345900  0.381600  1.0  0.1106
  H  H173  1  0.681900  0.515800  0.198200  1.0  0.1242
  H  H174  1  0.656700  0.406700  0.197000  1.0  0.1138
  H  H175  1  0.970200  0.215400  0.435900  1.0  0.1141
  H  H176  1  0.907100  0.283000  0.392400  1.0  0.1197
  H  H177  1  0.972800  0.325500  0.448300  1.0  0.1144
  H  H178  1  0.624600  0.472400  0.138100  1.0  0.1017
  H  H179  1  0.419900  0.429400  0.921900  1.0  0.4638
  H  H180  1  0.295300  0.343400  0.820700  1.0  0.447
  H  H181  1  0.360300  0.209000  0.937100  1.0  0.1224
  H  H182  1  0.380900  0.319400  0.938400  1.0  0.1143
  H  H183  1  0.316500  0.275400  0.881800  1.0  0.118
  H  H184  1  0.353400  0.162300  0.902500  1.0  0.1142
  H  H185  1  0.356700  0.102400  0.881200  1.0  0.0872
  H  H186  1  0.249500  0.109100  0.866000  1.0  0.1208
  H  H187  1  0.251900  0.048400  0.851600  1.0  0.0903
  H  H188  1  0.357500  0.041600  0.866900  1.0  0.1022
  H  H189  1  0.290700  0.034200  0.807000  1.0  0.0812
  H  H190  1  0.264700  0.943700  0.842200  1.0  0.1111
  H  H191  1  0.329800  0.939100  0.835500  1.0  0.0768
  H  H192  1  0.258800  0.017300  0.770400  1.0  0.1068
  H  H193  1  0.226400  0.928600  0.807000  1.0  0.1075
  H  H194  1  0.370100  0.897600  0.855500  1.0  0.1013
  H  H195  1  0.347300  0.947000  0.921300  1.0  0.1236
  H  H196  1  0.321200  0.997300  0.897300  1.0  0.0986
  H  H197  1  0.214600  0.002300  0.736200  1.0  0.1033
  H  H198  1  0.394400  0.845900  0.881600  1.0  0.1106
  H  H199  1  0.181900  0.015800  0.698200  1.0  0.1242
  H  H200  1  0.156700  0.906700  0.697000  1.0  0.1138
  H  H201  1  0.470200  0.715400  0.935900  1.0  0.1141
  H  H202  1  0.407100  0.783000  0.892400  1.0  0.1197
  H  H203  1  0.472800  0.825500  0.948300  1.0  0.1144
  H  H204  1  0.124600  0.972400  0.638100  1.0  0.1017
  H  H205  1  0.080100  0.070600  0.421900  1.0  0.4665
  H  H206  1  0.204700  0.156600  0.320700  1.0  0.4424
  H  H207  1  0.139700  0.291000  0.437100  1.0  0.1219
  H  H208  1  0.119100  0.180600  0.438400  1.0  0.1141
  H  H209  1  0.183500  0.224600  0.381800  1.0  0.1182
  H  H210  1  0.146600  0.337700  0.402500  1.0  0.1141
  H  H211  1  0.143300  0.397600  0.381200  1.0  0.088
  H  H212  1  0.250500  0.390900  0.366000  1.0  0.1197
  H  H213  1  0.248100  0.451600  0.351600  1.0  0.0914
  H  H214  1  0.142500  0.458400  0.366900  1.0  0.1038
  H  H215  1  0.209300  0.465800  0.307000  1.0  0.0807
  H  H216  1  0.235300  0.556300  0.342200  1.0  0.1114
  H  H217  1  0.170200  0.560900  0.335500  1.0  0.0784
  H  H218  1  0.241200  0.482700  0.270400  1.0  0.1064
  H  H219  1  0.273600  0.571400  0.307000  1.0  0.1086
  H  H220  1  0.129900  0.602400  0.355500  1.0  0.1008
  H  H221  1  0.152700  0.553000  0.421300  1.0  0.1232
  H  H222  1  0.178800  0.502700  0.397300  1.0  0.0983
  H  H223  1  0.285400  0.497700  0.236200  1.0  0.1037
  H  H224  1  0.105600  0.654100  0.381600  1.0  0.1103
  H  H225  1  0.318100  0.484200  0.198200  1.0  0.124
  H  H226  1  0.343300  0.593300  0.197000  1.0  0.1141
  H  H227  1  0.029800  0.784600  0.435900  1.0  0.1141
  H  H228  1  0.092900  0.717000  0.392400  1.0  0.12
  H  H229  1  0.027200  0.674500  0.448300  1.0  0.1141
  H  H230  1  0.375400  0.527600  0.138100  1.0  0.1017
  H  H231  1  0.580100  0.570600  0.921900  1.0  0.4665
  H  H232  1  0.704700  0.656600  0.820700  1.0  0.4424
  H  H233  1  0.639700  0.791000  0.937100  1.0  0.1219
  H  H234  1  0.619100  0.680600  0.938400  1.0  0.1141
  H  H235  1  0.683500  0.724600  0.881800  1.0  0.1182
  H  H236  1  0.646600  0.837700  0.902500  1.0  0.1141
  H  H237  1  0.643300  0.897600  0.881200  1.0  0.088
  H  H238  1  0.750500  0.890900  0.866000  1.0  0.1204
  H  H239  1  0.748100  0.951600  0.851600  1.0  0.0906
  H  H240  1  0.642500  0.958400  0.866900  1.0  0.104
  H  H241  1  0.709300  0.965800  0.807000  1.0  0.0807
  H  H242  1  0.735300  0.056300  0.842200  1.0  0.1114
  H  H243  1  0.670200  0.060900  0.835500  1.0  0.0775
  H  H244  1  0.741200  0.982700  0.770400  1.0  0.1068
  H  H245  1  0.773600  0.071400  0.807000  1.0  0.1085
  H  H246  1  0.629900  0.102400  0.855500  1.0  0.1008
  H  H247  1  0.652700  0.053000  0.921300  1.0  0.1235
  H  H248  1  0.678800  0.002700  0.897300  1.0  0.0986
  H  H249  1  0.785400  0.997700  0.736200  1.0  0.1037
  H  H250  1  0.605600  0.154100  0.881600  1.0  0.1103
  H  H251  1  0.818100  0.984200  0.698200  1.0  0.124
  H  H252  1  0.843300  0.093300  0.697000  1.0  0.1141
  H  H253  1  0.529800  0.284600  0.935900  1.0  0.1141
  H  H254  1  0.592900  0.217000  0.892400  1.0  0.12
  H  H255  1  0.527200  0.174500  0.948300  1.0  0.1141
  H  H256  1  0.875400  0.027600  0.638100  1.0  0.1017
  H  H257  1  0.070600  0.919900  0.578100  1.0  0.4655
  H  H258  1  0.156600  0.795300  0.679300  1.0  0.443
  H  H259  1  0.291000  0.860300  0.562900  1.0  0.1228
  H  H260  1  0.180600  0.880900  0.561600  1.0  0.1141
  H  H261  1  0.224600  0.816500  0.618200  1.0  0.1178
  H  H262  1  0.337700  0.853400  0.597500  1.0  0.115
  H  H263  1  0.397600  0.856700  0.618800  1.0  0.0886
  H  H264  1  0.390900  0.749500  0.634000  1.0  0.119
  H  H265  1  0.451600  0.751900  0.648400  1.0  0.0887
  H  H266  1  0.458400  0.857500  0.633100  1.0  0.1025
  H  H267  1  0.465800  0.790700  0.693000  1.0  0.0846
  H  H268  1  0.556300  0.764700  0.657800  1.0  0.1109
  H  H269  1  0.560900  0.829800  0.664500  1.0  0.0773
  H  H270  1  0.482700  0.758800  0.729600  1.0  0.1067
  H  H271  1  0.571400  0.726400  0.693000  1.0  0.1087
  H  H272  1  0.602400  0.870100  0.644500  1.0  0.0999
  H  H273  1  0.553000  0.847300  0.578700  1.0  0.1223
  H  H274  1  0.502700  0.821200  0.602700  1.0  0.0991
  H  H275  1  0.497700  0.714600  0.763800  1.0  0.1045
  H  H276  1  0.654100  0.894400  0.618400  1.0  0.1106
  H  H277  1  0.484200  0.681900  0.801800  1.0  0.1252
  H  H278  1  0.593300  0.656700  0.803000  1.0  0.1129
  H  H279  1  0.784600  0.970200  0.564100  1.0  0.1139
  H  H280  1  0.717000  0.907100  0.607600  1.0  0.121
  H  H281  1  0.674500  0.972800  0.551700  1.0  0.1131
  H  H282  1  0.527600  0.624600  0.861900  1.0  0.1018
  H  H283  1  0.570600  0.419900  0.078100  1.0  0.4655
  H  H284  1  0.656600  0.295300  0.179300  1.0  0.443
  H  H285  1  0.791000  0.360300  0.062900  1.0  0.1228
  H  H286  1  0.680600  0.380900  0.061600  1.0  0.1141
  H  H287  1  0.724600  0.316500  0.118200  1.0  0.1178
  H  H288  1  0.837700  0.353400  0.097500  1.0  0.115
  H  H289  1  0.897600  0.356700  0.118800  1.0  0.0886
  H  H290  1  0.890900  0.249500  0.134000  1.0  0.1206
  H  H291  1  0.951600  0.251900  0.148400  1.0  0.0876
  H  H292  1  0.958400  0.357500  0.133100  1.0  0.1024
  H  H293  1  0.965800  0.290700  0.193000  1.0  0.0846
  H  H294  1  0.056300  0.264700  0.157800  1.0  0.1109
  H  H295  1  0.060900  0.329800  0.164500  1.0  0.0766
  H  H296  1  0.982700  0.258800  0.229600  1.0  0.1074
  H  H297  1  0.071400  0.226400  0.193000  1.0  0.1084
  H  H298  1  0.102400  0.370100  0.144500  1.0  0.0999
  H  H299  1  0.053000  0.347300  0.078700  1.0  0.1224
  H  H300  1  0.002700  0.321200  0.102700  1.0  0.0996
  H  H301  1  0.997700  0.214600  0.263800  1.0  0.1045
  H  H302  1  0.154100  0.394400  0.118400  1.0  0.1106
  H  H303  1  0.984200  0.181900  0.301800  1.0  0.1252
  H  H304  1  0.093300  0.156700  0.303000  1.0  0.1129
  H  H305  1  0.284600  0.470200  0.064100  1.0  0.1139
  H  H306  1  0.217000  0.407100  0.107600  1.0  0.121
  H  H307  1  0.174500  0.472800  0.051700  1.0  0.1131
  H  H308  1  0.027600  0.124600  0.361900  1.0  0.1018
  H  H309  1  0.929400  0.080100  0.578100  1.0  0.4696
  H  H310  1  0.843400  0.204700  0.679300  1.0  0.4462
  H  H311  1  0.709000  0.139700  0.562900  1.0  0.1226
  H  H312  1  0.819400  0.119100  0.561600  1.0  0.1139
  H  H313  1  0.775400  0.183500  0.618200  1.0  0.1178
  H  H314  1  0.662300  0.146600  0.597500  1.0  0.1145
  H  H315  1  0.602400  0.143300  0.618800  1.0  0.0888
  H  H316  1  0.609100  0.250500  0.634000  1.0  0.1191
  H  H317  1  0.548400  0.248100  0.648400  1.0  0.0887
  H  H318  1  0.541600  0.142500  0.633100  1.0  0.102
  H  H319  1  0.534200  0.209300  0.693000  1.0  0.0831
  H  H320  1  0.443700  0.235300  0.657800  1.0  0.1109
  H  H321  1  0.439100  0.170200  0.664500  1.0  0.0785
  H  H322  1  0.517300  0.241200  0.729600  1.0  0.107
  H  H323  1  0.428600  0.273600  0.693000  1.0  0.1087
  H  H324  1  0.397600  0.129900  0.644500  1.0  0.099
  H  H325  1  0.447000  0.152700  0.578700  1.0  0.1231
  H  H326  1  0.497300  0.178800  0.602700  1.0  0.0994
  H  H327  1  0.502300  0.285400  0.763800  1.0  0.1037
  H  H328  1  0.345900  0.105600  0.618400  1.0  0.1108
  H  H329  1  0.515800  0.318100  0.801800  1.0  0.1247
  H  H330  1  0.406700  0.343300  0.803000  1.0  0.1131
  H  H331  1  0.215400  0.029800  0.564100  1.0  0.1136
  H  H332  1  0.283000  0.092900  0.607600  1.0  0.1204
  H  H333  1  0.325500  0.027200  0.551700  1.0  0.1136
  H  H334  1  0.472400  0.375400  0.861900  1.0  0.102
  H  H335  1  0.429400  0.580100  0.078100  1.0  0.4696
  H  H336  1  0.343400  0.704700  0.179300  1.0  0.4462
  H  H337  1  0.209000  0.639700  0.062900  1.0  0.1226
  H  H338  1  0.319400  0.619100  0.061600  1.0  0.1139
  H  H339  1  0.275400  0.683500  0.118200  1.0  0.1178
  H  H340  1  0.162300  0.646600  0.097500  1.0  0.1145
  H  H341  1  0.102400  0.643300  0.118800  1.0  0.0888
  H  H342  1  0.109100  0.750500  0.134000  1.0  0.1203
  H  H343  1  0.048400  0.748100  0.148400  1.0  0.088
  H  H344  1  0.041600  0.642500  0.133100  1.0  0.1022
  H  H345  1  0.034200  0.709300  0.193000  1.0  0.0831
  H  H346  1  0.943700  0.735300  0.157800  1.0  0.1109
  H  H347  1  0.939100  0.670200  0.164500  1.0  0.0778
  H  H348  1  0.017300  0.741200  0.229600  1.0  0.108
  H  H349  1  0.928600  0.773600  0.193000  1.0  0.1086
  H  H350  1  0.897600  0.629900  0.144500  1.0  0.099
  H  H351  1  0.947000  0.652700  0.078700  1.0  0.1231
  H  H352  1  0.997300  0.678800  0.102700  1.0  0.0998
  H  H353  1  0.002300  0.785400  0.263800  1.0  0.1037
  H  H354  1  0.845900  0.605600  0.118400  1.0  0.1108
  H  H355  1  0.015800  0.818100  0.301800  1.0  0.1247
  H  H356  1  0.906700  0.843300  0.303000  1.0  0.1131
  H  H357  1  0.715400  0.529800  0.064100  1.0  0.1136
  H  H358  1  0.783000  0.592900  0.107600  1.0  0.1204
  H  H359  1  0.825500  0.527200  0.051700  1.0  0.1136
  H  H360  1  0.972400  0.875400  0.361900  1.0  0.102
  H  H361  1  0.080100  0.070600  0.578100  1.0  0.4661
  H  H362  1  0.204700  0.156600  0.679300  1.0  0.4428
  H  H363  1  0.139700  0.291000  0.562900  1.0  0.1217
  H  H364  1  0.119100  0.180600  0.561600  1.0  0.1142
  H  H365  1  0.183500  0.224600  0.618200  1.0  0.118
  H  H366  1  0.146600  0.337700  0.597500  1.0  0.1142
  H  H367  1  0.143300  0.397600  0.618800  1.0  0.0882
  H  H368  1  0.250500  0.390900  0.634000  1.0  0.1199
  H  H369  1  0.248100  0.451600  0.648400  1.0  0.0912
  H  H370  1  0.142500  0.458400  0.633100  1.0  0.1039
  H  H371  1  0.209300  0.465800  0.693000  1.0  0.0814
  H  H372  1  0.235300  0.556300  0.657800  1.0  0.1112
  H  H373  1  0.170200  0.560900  0.664500  1.0  0.0781
  H  H374  1  0.241200  0.482700  0.729600  1.0  0.1063
  H  H375  1  0.273600  0.571400  0.693000  1.0  0.1087
  H  H376  1  0.129900  0.602400  0.644500  1.0  0.0988
  H  H377  1  0.152700  0.553000  0.578700  1.0  0.123
  H  H378  1  0.178800  0.502700  0.602700  1.0  0.0982
  H  H379  1  0.285400  0.497700  0.763800  1.0  0.1036
  H  H380  1  0.105600  0.654100  0.618400  1.0  0.1106
  H  H381  1  0.318100  0.484200  0.801800  1.0  0.1243
  H  H382  1  0.343300  0.593300  0.803000  1.0  0.1137
  H  H383  1  0.029800  0.784600  0.564100  1.0  0.114
  H  H384  1  0.092900  0.717000  0.607600  1.0  0.1208
  H  H385  1  0.027200  0.674500  0.551700  1.0  0.1137
  H  H386  1  0.375400  0.527600  0.861900  1.0  0.1017
  H  H387  1  0.580100  0.570600  0.078100  1.0  0.4661
  H  H388  1  0.704700  0.656600  0.179300  1.0  0.4428
  H  H389  1  0.639700  0.791000  0.062900  1.0  0.1217
  H  H390  1  0.619100  0.680600  0.061600  1.0  0.1142
  H  H391  1  0.683500  0.724600  0.118200  1.0  0.118
  H  H392  1  0.646600  0.837700  0.097500  1.0  0.1142
  H  H393  1  0.643300  0.897600  0.118800  1.0  0.0882
  H  H394  1  0.750500  0.890900  0.134000  1.0  0.1207
  H  H395  1  0.748100  0.951600  0.148400  1.0  0.0905
  H  H396  1  0.642500  0.958400  0.133100  1.0  0.1042
  H  H397  1  0.709300  0.965800  0.193000  1.0  0.0814
  H  H398  1  0.735300  0.056300  0.157800  1.0  0.1112
  H  H399  1  0.670200  0.060900  0.164500  1.0  0.0771
  H  H400  1  0.741200  0.982700  0.229600  1.0  0.107
  H  H401  1  0.773600  0.071400  0.193000  1.0  0.1084
  H  H402  1  0.629900  0.102400  0.144500  1.0  0.0988
  H  H403  1  0.652700  0.053000  0.078700  1.0  0.1232
  H  H404  1  0.678800  0.002700  0.102700  1.0  0.0987
  H  H405  1  0.785400  0.997700  0.263800  1.0  0.1036
  H  H406  1  0.605600  0.154100  0.118400  1.0  0.1106
  H  H407  1  0.818100  0.984200  0.301800  1.0  0.1243
  H  H408  1  0.843300  0.093300  0.303000  1.0  0.1137
  H  H409  1  0.529800  0.284600  0.064100  1.0  0.114
  H  H410  1  0.592900  0.217000  0.107600  1.0  0.1208
  H  H411  1  0.527200  0.174500  0.051700  1.0  0.1137
  H  H412  1  0.875400  0.027600  0.361900  1.0  0.1017
  H  H413  1  0.919900  0.929400  0.578100  1.0  0.4633
  H  H414  1  0.795300  0.843400  0.679300  1.0  0.4473
  H  H415  1  0.860300  0.709000  0.562900  1.0  0.1222
  H  H416  1  0.880900  0.819400  0.561600  1.0  0.1143
  H  H417  1  0.816500  0.775400  0.618200  1.0  0.1185
  H  H418  1  0.853400  0.662300  0.597500  1.0  0.1141
  H  H419  1  0.856700  0.602400  0.618800  1.0  0.0875
  H  H420  1  0.749500  0.609100  0.634000  1.0  0.1203
  H  H421  1  0.751900  0.548400  0.648400  1.0  0.0912
  H  H422  1  0.857500  0.541600  0.633100  1.0  0.1027
  H  H423  1  0.790700  0.534200  0.693000  1.0  0.0821
  H  H424  1  0.764700  0.443700  0.657800  1.0  0.1105
  H  H425  1  0.829800  0.439100  0.664500  1.0  0.0768
  H  H426  1  0.758800  0.517300  0.729600  1.0  0.1065
  H  H427  1  0.726400  0.428600  0.693000  1.0  0.1072
  H  H428  1  0.870100  0.397600  0.644500  1.0  0.0999
  H  H429  1  0.847300  0.447000  0.578700  1.0  0.1231
  H  H430  1  0.821200  0.497300  0.602700  1.0  0.0986
  H  H431  1  0.714600  0.502300  0.763800  1.0  0.1032
  H  H432  1  0.894400  0.345900  0.618400  1.0  0.111
  H  H433  1  0.681900  0.515800  0.801800  1.0  0.1244
  H  H434  1  0.656700  0.406700  0.803000  1.0  0.1134
  H  H435  1  0.970200  0.215400  0.564100  1.0  0.1143
  H  H436  1  0.907100  0.283000  0.607600  1.0  0.1207
  H  H437  1  0.972800  0.325500  0.551700  1.0  0.1139
  H  H438  1  0.624600  0.472400  0.861900  1.0  0.1016
  H  H439  1  0.419900  0.429400  0.078100  1.0  0.4633
  H  H440  1  0.295300  0.343400  0.179300  1.0  0.4473
  H  H441  1  0.360300  0.209000  0.062900  1.0  0.1222
  H  H442  1  0.380900  0.319400  0.061600  1.0  0.1143
  H  H443  1  0.316500  0.275400  0.118200  1.0  0.1185
  H  H444  1  0.353400  0.162300  0.097500  1.0  0.1141
  H  H445  1  0.356700  0.102400  0.118800  1.0  0.0875
  H  H446  1  0.249500  0.109100  0.134000  1.0  0.1209
  H  H447  1  0.251900  0.048400  0.148400  1.0  0.0902
  H  H448  1  0.357500  0.041600  0.133100  1.0  0.1025
  H  H449  1  0.290700  0.034200  0.193000  1.0  0.0821
  H  H450  1  0.264700  0.943700  0.157800  1.0  0.1105
  H  H451  1  0.329800  0.939100  0.164500  1.0  0.076
  H  H452  1  0.258800  0.017300  0.229600  1.0  0.1072
  H  H453  1  0.226400  0.928600  0.193000  1.0  0.1068
  H  H454  1  0.370100  0.897600  0.144500  1.0  0.0999
  H  H455  1  0.347300  0.947000  0.078700  1.0  0.1233
  H  H456  1  0.321200  0.997300  0.102700  1.0  0.0991
  H  H457  1  0.214600  0.002300  0.263800  1.0  0.1032
  H  H458  1  0.394400  0.845900  0.118400  1.0  0.111
  H  H459  1  0.181900  0.015800  0.301800  1.0  0.1244
  H  H460  1  0.156700  0.906700  0.303000  1.0  0.1134
  H  H461  1  0.470200  0.715400  0.064100  1.0  0.1143
  H  H462  1  0.407100  0.783000  0.107600  1.0  0.1207
  H  H463  1  0.472800  0.825500  0.051700  1.0  0.1139
  H  H464  1  0.124600  0.972400  0.361900  1.0  0.1016
  C  C465  1  0.732640  0.142740  0.430010  1.0  -0.099
  C  C466  1  0.763460  0.125660  0.441000  1.0  -0.1381
  C  C467  1  0.757590  0.099490  0.464080  1.0  0.7023
  C  C468  1  0.798900  0.130350  0.430540  1.0  0.0211
  C  C469  1  0.803420  0.152000  0.408240  1.0  -0.1637
  C  C470  1  0.841040  0.154440  0.394770  1.0  0.6928
  C  C471  1  0.772650  0.169160  0.396790  1.0  -0.03
  C  C472  1  0.738210  0.164470  0.408100  1.0  0.1332
  C  C473  1  0.671370  0.168260  0.394900  1.0  -0.0286
  C  C474  1  0.652160  0.193760  0.380940  1.0  0.0003
  C  C475  1  0.612990  0.195370  0.373000  1.0  -0.0285
  C  C476  1  0.592080  0.164940  0.374450  1.0  -0.1066
  C  C477  1  0.596290  0.228000  0.365550  1.0  -0.1414
  C  C478  1  0.559610  0.226200  0.357280  1.0  -0.1367
  C  C479  1  0.555150  0.164500  0.366070  1.0  -0.1579
  C  C480  1  0.539200  0.194800  0.356990  1.0  0.2093
  C  C481  1  0.490240  0.216000  0.327180  1.0  0.2785
  C  C482  1  0.510810  0.220500  0.306840  1.0  -0.0852
  C  C483  1  0.459090  0.236000  0.327700  1.0  -0.2056
  C  C484  1  0.474860  0.173200  0.362310  1.0  0.3117
  C  C485  1  0.444480  0.162300  0.352370  1.0  -0.0979
  C  C486  1  0.501280  0.240550  0.284590  1.0  -0.1234
  C  C487  1  0.470330  0.258000  0.283980  1.0  0.1161
  C  C488  1  0.449490  0.258400  0.306070  1.0  -0.0448
  C  C489  1  0.421800  0.130600  0.388510  1.0  0.0214
  C  C490  1  0.417900  0.139000  0.364810  1.0  -0.1294
  C  C491  1  0.448210  0.151100  0.403250  1.0  -0.1293
  C  C492  1  0.476750  0.169300  0.388510  1.0  -0.198
  C  C493  1  0.477780  0.291410  0.240200  1.0  -0.0564
  C  C494  1  0.460150  0.281200  0.261410  1.0  0.1016
  C  C495  1  0.358870  0.098420  0.396470  1.0  -0.035
  C  C496  1  0.393300  0.106900  0.401860  1.0  0.0875
  C  C497  1  0.500010  0.346560  0.165490  1.0  -0.154
  C  C498  1  0.495640  0.329140  0.189840  1.0  -0.0826
  C  C499  1  0.430100  0.344640  0.189200  1.0  -0.0485
  C  C500  1  0.460360  0.328830  0.201060  1.0  0.1282
  C  C501  1  0.239300  0.037480  0.431410  1.0  0.0064
  C  C502  1  0.244500  0.062550  0.411460  1.0  -0.1412
  C  C503  1  0.270190  0.023600  0.444900  1.0  -0.1272
  C  C504  1  0.279500  0.075720  0.405770  1.0  -0.0834
  C  C505  1  0.304970  0.036420  0.439260  1.0  -0.0583
  C  C506  1  0.309680  0.062890  0.420280  1.0  0.1614
  C  C507  1  0.401080  0.378950  0.151980  1.0  0.6861
  C  C508  1  0.536880  0.345870  0.151700  1.0  0.6905
  C  C509  1  0.469510  0.363340  0.154030  1.0  0.0288
  C  C510  1  0.434510  0.362600  0.165690  1.0  -0.137
  C  C511  1  0.211120  0.075980  0.396290  1.0  0.6823
  C  C512  1  0.264180  0.993940  0.465780  1.0  0.6907
  C  C513  1  0.232640  0.642740  0.930010  1.0  -0.099
  C  C514  1  0.263460  0.625660  0.941000  1.0  -0.1381
  C  C515  1  0.257590  0.599490  0.964080  1.0  0.7023
  C  C516  1  0.298900  0.630350  0.930540  1.0  0.0211
  C  C517  1  0.303420  0.652000  0.908240  1.0  -0.1637
  C  C518  1  0.341040  0.654440  0.894770  1.0  0.6928
  C  C519  1  0.272650  0.669160  0.896790  1.0  -0.03
  C  C520  1  0.238210  0.664470  0.908100  1.0  0.1332
  C  C521  1  0.171370  0.668260  0.894900  1.0  -0.0286
  C  C522  1  0.152160  0.693760  0.880940  1.0  0.0003
  C  C523  1  0.112990  0.695370  0.873000  1.0  -0.0285
  C  C524  1  0.092080  0.664940  0.874450  1.0  -0.1066
  C  C525  1  0.096290  0.728000  0.865550  1.0  -0.1414
  C  C526  1  0.059610  0.726200  0.857280  1.0  -0.1367
  C  C527  1  0.055150  0.664500  0.866070  1.0  -0.1579
  C  C528  1  0.039200  0.694800  0.856990  1.0  0.2093
  C  C529  1  0.990240  0.716000  0.827180  1.0  0.2785
  C  C530  1  0.010810  0.720500  0.806840  1.0  -0.0852
  C  C531  1  0.959090  0.736000  0.827700  1.0  -0.2056
  C  C532  1  0.974860  0.673200  0.862310  1.0  0.3117
  C  C533  1  0.944480  0.662300  0.852370  1.0  -0.0979
  C  C534  1  0.001280  0.740550  0.784590  1.0  -0.1219
  C  C535  1  0.970330  0.758000  0.783980  1.0  0.1161
  C  C536  1  0.949490  0.758400  0.806070  1.0  -0.0448
  C  C537  1  0.921800  0.630600  0.888510  1.0  0.0214
  C  C538  1  0.917900  0.639000  0.864810  1.0  -0.1294
  C  C539  1  0.948210  0.651100  0.903250  1.0  -0.1293
  C  C540  1  0.976750  0.669300  0.888510  1.0  -0.198
  C  C541  1  0.977780  0.791410  0.740200  1.0  -0.0564
  C  C542  1  0.960150  0.781200  0.761410  1.0  0.1016
  C  C543  1  0.858870  0.598420  0.896470  1.0  -0.035
  C  C544  1  0.893300  0.606900  0.901860  1.0  0.0875
  C  C545  1  0.000010  0.846560  0.665490  1.0  -0.154
  C  C546  1  0.995640  0.829140  0.689840  1.0  -0.0826
  C  C547  1  0.930100  0.844640  0.689200  1.0  -0.0485
  C  C548  1  0.960360  0.828830  0.701060  1.0  0.1282
  C  C549  1  0.739300  0.537480  0.931410  1.0  0.0064
  C  C550  1  0.744500  0.562550  0.911460  1.0  -0.1412
  C  C551  1  0.770190  0.523600  0.944900  1.0  -0.1272
  C  C552  1  0.779500  0.575720  0.905770  1.0  -0.0834
  C  C553  1  0.804970  0.536420  0.939260  1.0  -0.0583
  C  C554  1  0.809680  0.562890  0.920280  1.0  0.1614
  C  C555  1  0.901080  0.878950  0.651980  1.0  0.6861
  C  C556  1  0.036880  0.845870  0.651700  1.0  0.6905
  C  C557  1  0.969510  0.863340  0.654030  1.0  0.0288
  C  C558  1  0.934510  0.862600  0.665690  1.0  -0.137
  C  C559  1  0.711120  0.575980  0.896290  1.0  0.6823
  C  C560  1  0.764180  0.493940  0.965780  1.0  0.6907
  C  C561  1  0.267360  0.857260  0.430010  1.0  -0.0985
  C  C562  1  0.236540  0.874340  0.441000  1.0  -0.138
  C  C563  1  0.242410  0.900510  0.464080  1.0  0.7025
  C  C564  1  0.201100  0.869650  0.430540  1.0  0.0209
  C  C565  1  0.196580  0.848000  0.408240  1.0  -0.1642
  C  C566  1  0.158960  0.845560  0.394770  1.0  0.6924
  C  C567  1  0.227350  0.830840  0.396790  1.0  -0.0307
  C  C568  1  0.261790  0.835530  0.408100  1.0  0.1329
  C  C569  1  0.328630  0.831740  0.394900  1.0  -0.0305
  C  C570  1  0.347840  0.806240  0.380940  1.0  0.0015
  C  C571  1  0.387010  0.804630  0.373000  1.0  -0.0293
  C  C572  1  0.407920  0.835060  0.374450  1.0  -0.1048
  C  C573  1  0.403710  0.772000  0.365550  1.0  -0.1396
  C  C574  1  0.440390  0.773800  0.357280  1.0  -0.1383
  C  C575  1  0.444850  0.835500  0.366070  1.0  -0.157
  C  C576  1  0.460800  0.805200  0.356990  1.0  0.2098
  C  C577  1  0.509760  0.784000  0.327180  1.0  0.2795
  C  C578  1  0.489190  0.779500  0.306840  1.0  -0.0856
  C  C579  1  0.540910  0.764000  0.327700  1.0  -0.2005
  C  C580  1  0.525140  0.826800  0.362310  1.0  0.3121
  C  C581  1  0.555520  0.837700  0.352370  1.0  -0.0988
  C  C582  1  0.498720  0.759450  0.284590  1.0  -0.1243
  C  C583  1  0.529670  0.742000  0.283980  1.0  0.1162
  C  C584  1  0.550510  0.741600  0.306070  1.0  -0.0462
  C  C585  1  0.578200  0.869400  0.388510  1.0  0.0224
  C  C586  1  0.582100  0.861000  0.364810  1.0  -0.1272
  C  C587  1  0.551790  0.848900  0.403250  1.0  -0.1292
  C  C588  1  0.523250  0.830700  0.388510  1.0  -0.1977
  C  C589  1  0.522220  0.708590  0.240200  1.0  -0.0555
  C  C590  1  0.539850  0.718800  0.261410  1.0  0.1034
  C  C591  1  0.641130  0.901580  0.396470  1.0  -0.0344
  C  C592  1  0.606700  0.893100  0.401860  1.0  0.0895
  C  C593  1  0.499990  0.653440  0.165490  1.0  -0.1544
  C  C594  1  0.504360  0.670860  0.189840  1.0  -0.0836
  C  C595  1  0.569900  0.655360  0.189200  1.0  -0.0484
  C  C596  1  0.539640  0.671170  0.201060  1.0  0.1285
  C  C597  1  0.760700  0.962520  0.431410  1.0  0.0064
  C  C598  1  0.755500  0.937450  0.411460  1.0  -0.1407
  C  C599  1  0.729810  0.976400  0.444900  1.0  -0.1273
  C  C600  1  0.720500  0.924280  0.405770  1.0  -0.083
  C  C601  1  0.695030  0.963580  0.439260  1.0  -0.0612
  C  C602  1  0.690320  0.937110  0.420280  1.0  0.1609
  C  C603  1  0.598920  0.621050  0.151980  1.0  0.686
  C  C604  1  0.463120  0.654130  0.151700  1.0  0.6912
  C  C605  1  0.530490  0.636660  0.154030  1.0  0.0289
  C  C606  1  0.565490  0.637400  0.165690  1.0  -0.1368
  C  C607  1  0.788880  0.924020  0.396290  1.0  0.6822
  C  C608  1  0.735820  0.006060  0.465780  1.0  0.6906
  C  C609  1  0.767360  0.357260  0.930010  1.0  -0.0985
  C  C610  1  0.736540  0.374340  0.941000  1.0  -0.138
  C  C611  1  0.742410  0.400510  0.964080  1.0  0.7025
  C  C612  1  0.701100  0.369650  0.930540  1.0  0.0209
  C  C613  1  0.696580  0.348000  0.908240  1.0  -0.1642
  C  C614  1  0.658960  0.345560  0.894770  1.0  0.6924
  C  C615  1  0.727350  0.330840  0.896790  1.0  -0.0307
  C  C616  1  0.761790  0.335530  0.908100  1.0  0.1329
  C  C617  1  0.828630  0.331740  0.894900  1.0  -0.0305
  C  C618  1  0.847840  0.306240  0.880940  1.0  0.0015
  C  C619  1  0.887010  0.304630  0.873000  1.0  -0.0293
  C  C620  1  0.907920  0.335060  0.874450  1.0  -0.1048
  C  C621  1  0.903710  0.272000  0.865550  1.0  -0.1396
  C  C622  1  0.940390  0.273800  0.857280  1.0  -0.1383
  C  C623  1  0.944850  0.335500  0.866070  1.0  -0.157
  C  C624  1  0.960800  0.305200  0.856990  1.0  0.2098
  C  C625  1  0.009760  0.284000  0.827180  1.0  0.2795
  C  C626  1  0.989190  0.279500  0.806840  1.0  -0.0856
  C  C627  1  0.040910  0.264000  0.827700  1.0  -0.2005
  C  C628  1  0.025140  0.326800  0.862310  1.0  0.3121
  C  C629  1  0.055520  0.337700  0.852370  1.0  -0.0988
  C  C630  1  0.998720  0.259450  0.784590  1.0  -0.123
  C  C631  1  0.029670  0.242000  0.783980  1.0  0.1162
  C  C632  1  0.050510  0.241600  0.806070  1.0  -0.0462
  C  C633  1  0.078200  0.369400  0.888510  1.0  0.0224
  C  C634  1  0.082100  0.361000  0.864810  1.0  -0.1272
  C  C635  1  0.051790  0.348900  0.903250  1.0  -0.1292
  C  C636  1  0.023250  0.330700  0.888510  1.0  -0.1977
  C  C637  1  0.022220  0.208590  0.740200  1.0  -0.0555
  C  C638  1  0.039850  0.218800  0.761410  1.0  0.1034
  C  C639  1  0.141130  0.401580  0.896470  1.0  -0.0344
  C  C640  1  0.106700  0.393100  0.901860  1.0  0.0895
  C  C641  1  0.999990  0.153440  0.665490  1.0  -0.1544
  C  C642  1  0.004360  0.170860  0.689840  1.0  -0.0836
  C  C643  1  0.069900  0.155360  0.689200  1.0  -0.0484
  C  C644  1  0.039640  0.171170  0.701060  1.0  0.1285
  C  C645  1  0.260700  0.462520  0.931410  1.0  0.0064
  C  C646  1  0.255500  0.437450  0.911460  1.0  -0.1407
  C  C647  1  0.229810  0.476400  0.944900  1.0  -0.1273
  C  C648  1  0.220500  0.424280  0.905770  1.0  -0.083
  C  C649  1  0.195030  0.463580  0.939260  1.0  -0.0612
  C  C650  1  0.190320  0.437110  0.920280  1.0  0.1609
  C  C651  1  0.098920  0.121050  0.651980  1.0  0.686
  C  C652  1  0.963120  0.154130  0.651700  1.0  0.6912
  C  C653  1  0.030490  0.136660  0.654030  1.0  0.0289
  C  C654  1  0.065490  0.137400  0.665690  1.0  -0.1368
  C  C655  1  0.288880  0.424020  0.896290  1.0  0.6822
  C  C656  1  0.235820  0.506060  0.965780  1.0  0.6906
  C  C657  1  0.857260  0.732640  0.430010  1.0  -0.0972
  C  C658  1  0.874340  0.763460  0.441000  1.0  -0.1384
  C  C659  1  0.900510  0.757590  0.464080  1.0  0.7014
  C  C660  1  0.869650  0.798900  0.430540  1.0  0.0215
  C  C661  1  0.848000  0.803420  0.408240  1.0  -0.1648
  C  C662  1  0.845560  0.841040  0.394770  1.0  0.6935
  C  C663  1  0.830840  0.772650  0.396790  1.0  -0.0319
  C  C664  1  0.835530  0.738210  0.408100  1.0  0.1312
  C  C665  1  0.831740  0.671370  0.394900  1.0  -0.0296
  C  C666  1  0.806240  0.652160  0.380940  1.0  0.0028
  C  C667  1  0.804630  0.612990  0.373000  1.0  -0.0272
  C  C668  1  0.835060  0.592080  0.374450  1.0  -0.1006
  C  C669  1  0.772000  0.596290  0.365550  1.0  -0.1401
  C  C670  1  0.773800  0.559610  0.357280  1.0  -0.1369
  C  C671  1  0.835500  0.555150  0.366070  1.0  -0.1588
  C  C672  1  0.805200  0.539200  0.356990  1.0  0.2117
  C  C673  1  0.784000  0.490240  0.327180  1.0  0.2788
  C  C674  1  0.779500  0.510810  0.306840  1.0  -0.0881
  C  C675  1  0.764000  0.459090  0.327700  1.0  -0.1994
  C  C676  1  0.826800  0.474860  0.362310  1.0  0.3179
  C  C677  1  0.837700  0.444480  0.352370  1.0  -0.1014
  C  C678  1  0.759450  0.501280  0.284590  1.0  -0.1239
  C  C679  1  0.742000  0.470330  0.283980  1.0  0.1157
  C  C680  1  0.741600  0.449490  0.306070  1.0  -0.0431
  C  C681  1  0.869400  0.421800  0.388510  1.0  0.0213
  C  C682  1  0.861000  0.417900  0.364810  1.0  -0.1293
  C  C683  1  0.848900  0.448210  0.403250  1.0  -0.1289
  C  C684  1  0.830700  0.476750  0.388510  1.0  -0.1981
  C  C685  1  0.708590  0.477780  0.240200  1.0  -0.0543
  C  C686  1  0.718800  0.460150  0.261410  1.0  0.101
  C  C687  1  0.901580  0.358870  0.396470  1.0  -0.0357
  C  C688  1  0.893100  0.393300  0.401860  1.0  0.0895
  C  C689  1  0.653440  0.500010  0.165490  1.0  -0.1535
  C  C690  1  0.670860  0.495640  0.189840  1.0  -0.0798
  C  C691  1  0.655360  0.430100  0.189200  1.0  -0.049
  C  C692  1  0.671170  0.460360  0.201060  1.0  0.1277
  C  C693  1  0.962520  0.239300  0.431410  1.0  0.0102
  C  C694  1  0.937450  0.244500  0.411460  1.0  -0.1404
  C  C695  1  0.976400  0.270190  0.444900  1.0  -0.1277
  C  C696  1  0.924280  0.279500  0.405770  1.0  -0.0863
  C  C697  1  0.963580  0.304970  0.439260  1.0  -0.0611
  C  C698  1  0.937110  0.309680  0.420280  1.0  0.1613
  C  C699  1  0.621050  0.401080  0.151980  1.0  0.687
  C  C700  1  0.654130  0.536880  0.151700  1.0  0.6914
  C  C701  1  0.636660  0.469510  0.154030  1.0  0.0284
  C  C702  1  0.637400  0.434510  0.165690  1.0  -0.1378
  C  C703  1  0.924020  0.211120  0.396290  1.0  0.6824
  C  C704  1  0.006060  0.264180  0.465780  1.0  0.6905
  C  C705  1  0.357260  0.232640  0.930010  1.0  -0.0972
  C  C706  1  0.374340  0.263460  0.941000  1.0  -0.1384
  C  C707  1  0.400510  0.257590  0.964080  1.0  0.7014
  C  C708  1  0.369650  0.298900  0.930540  1.0  0.0215
  C  C709  1  0.348000  0.303420  0.908240  1.0  -0.1648
  C  C710  1  0.345560  0.341040  0.894770  1.0  0.6935
  C  C711  1  0.330840  0.272650  0.896790  1.0  -0.0319
  C  C712  1  0.335530  0.238210  0.908100  1.0  0.1312
  C  C713  1  0.331740  0.171370  0.894900  1.0  -0.0296
  C  C714  1  0.306240  0.152160  0.880940  1.0  0.0028
  C  C715  1  0.304630  0.112990  0.873000  1.0  -0.0272
  C  C716  1  0.335060  0.092080  0.874450  1.0  -0.1006
  C  C717  1  0.272000  0.096290  0.865550  1.0  -0.1401
  C  C718  1  0.273800  0.059610  0.857280  1.0  -0.1369
  C  C719  1  0.335500  0.055150  0.866070  1.0  -0.1588
  C  C720  1  0.305200  0.039200  0.856990  1.0  0.2117
  C  C721  1  0.284000  0.990240  0.827180  1.0  0.2788
  C  C722  1  0.279500  0.010810  0.806840  1.0  -0.0881
  C  C723  1  0.264000  0.959090  0.827700  1.0  -0.1994
  C  C724  1  0.326800  0.974860  0.862310  1.0  0.3179
  C  C725  1  0.337700  0.944480  0.852370  1.0  -0.1014
  C  C726  1  0.259450  0.001280  0.784590  1.0  -0.122
  C  C727  1  0.242000  0.970330  0.783980  1.0  0.1157
  C  C728  1  0.241600  0.949490  0.806070  1.0  -0.0431
  C  C729  1  0.369400  0.921800  0.888510  1.0  0.0213
  C  C730  1  0.361000  0.917900  0.864810  1.0  -0.1293
  C  C731  1  0.348900  0.948210  0.903250  1.0  -0.1289
  C  C732  1  0.330700  0.976750  0.888510  1.0  -0.1981
  C  C733  1  0.208590  0.977780  0.740200  1.0  -0.0543
  C  C734  1  0.218800  0.960150  0.761410  1.0  0.101
  C  C735  1  0.401580  0.858870  0.896470  1.0  -0.0357
  C  C736  1  0.393100  0.893300  0.901860  1.0  0.0895
  C  C737  1  0.153440  0.000010  0.665490  1.0  -0.1535
  C  C738  1  0.170860  0.995640  0.689840  1.0  -0.0798
  C  C739  1  0.155360  0.930100  0.689200  1.0  -0.049
  C  C740  1  0.171170  0.960360  0.701060  1.0  0.1277
  C  C741  1  0.462520  0.739300  0.931410  1.0  0.0102
  C  C742  1  0.437450  0.744500  0.911460  1.0  -0.1404
  C  C743  1  0.476400  0.770190  0.944900  1.0  -0.1277
  C  C744  1  0.424280  0.779500  0.905770  1.0  -0.0863
  C  C745  1  0.463580  0.804970  0.939260  1.0  -0.0611
  C  C746  1  0.437110  0.809680  0.920280  1.0  0.1613
  C  C747  1  0.121050  0.901080  0.651980  1.0  0.687
  C  C748  1  0.154130  0.036880  0.651700  1.0  0.6914
  C  C749  1  0.136660  0.969510  0.654030  1.0  0.0284
  C  C750  1  0.137400  0.934510  0.665690  1.0  -0.1378
  C  C751  1  0.424020  0.711120  0.896290  1.0  0.6824
  C  C752  1  0.506060  0.764180  0.965780  1.0  0.6905
  C  C753  1  0.142740  0.267360  0.430010  1.0  -0.0966
  C  C754  1  0.125660  0.236540  0.441000  1.0  -0.1394
  C  C755  1  0.099490  0.242410  0.464080  1.0  0.702
  C  C756  1  0.130350  0.201100  0.430540  1.0  0.0217
  C  C757  1  0.152000  0.196580  0.408240  1.0  -0.1648
  C  C758  1  0.154440  0.158960  0.394770  1.0  0.6927
  C  C759  1  0.169160  0.227350  0.396790  1.0  -0.0318
  C  C760  1  0.164470  0.261790  0.408100  1.0  0.1335
  C  C761  1  0.168260  0.328630  0.394900  1.0  -0.0284
  C  C762  1  0.193760  0.347840  0.380940  1.0  0.0018
  C  C763  1  0.195370  0.387010  0.373000  1.0  -0.029
  C  C764  1  0.164940  0.407920  0.374450  1.0  -0.1014
  C  C765  1  0.228000  0.403710  0.365550  1.0  -0.1399
  C  C766  1  0.226200  0.440390  0.357280  1.0  -0.136
  C  C767  1  0.164500  0.444850  0.366070  1.0  -0.1584
  C  C768  1  0.194800  0.460800  0.356990  1.0  0.2118
  C  C769  1  0.216000  0.509760  0.327180  1.0  0.2785
  C  C770  1  0.220500  0.489190  0.306840  1.0  -0.0892
  C  C771  1  0.236000  0.540910  0.327700  1.0  -0.2006
  C  C772  1  0.173200  0.525140  0.362310  1.0  0.3164
  C  C773  1  0.162300  0.555520  0.352370  1.0  -0.1011
  C  C774  1  0.240550  0.498720  0.284590  1.0  -0.1249
  C  C775  1  0.258000  0.529670  0.283980  1.0  0.1172
  C  C776  1  0.258400  0.550510  0.306070  1.0  -0.0445
  C  C777  1  0.130600  0.578200  0.388510  1.0  0.0211
  C  C778  1  0.139000  0.582100  0.364810  1.0  -0.1289
  C  C779  1  0.151100  0.551790  0.403250  1.0  -0.1297
  C  C780  1  0.169300  0.523250  0.388510  1.0  -0.1967
  C  C781  1  0.291410  0.522220  0.240200  1.0  -0.0554
  C  C782  1  0.281200  0.539850  0.261410  1.0  0.1018
  C  C783  1  0.098420  0.641130  0.396470  1.0  -0.0352
  C  C784  1  0.106900  0.606700  0.401860  1.0  0.091
  C  C785  1  0.346560  0.499990  0.165490  1.0  -0.1535
  C  C786  1  0.329140  0.504360  0.189840  1.0  -0.0805
  C  C787  1  0.344640  0.569900  0.189200  1.0  -0.0476
  C  C788  1  0.328830  0.539640  0.201060  1.0  0.1279
  C  C789  1  0.037480  0.760700  0.431410  1.0  0.0083
  C  C790  1  0.062550  0.755500  0.411460  1.0  -0.1405
  C  C791  1  0.023600  0.729810  0.444900  1.0  -0.1274
  C  C792  1  0.075720  0.720500  0.405770  1.0  -0.0859
  C  C793  1  0.036420  0.695030  0.439260  1.0  -0.0614
  C  C794  1  0.062890  0.690320  0.420280  1.0  0.1612
  C  C795  1  0.378950  0.598920  0.151980  1.0  0.688
  C  C796  1  0.345870  0.463120  0.151700  1.0  0.691
  C  C797  1  0.363340  0.530490  0.154030  1.0  0.0285
  C  C798  1  0.362600  0.565490  0.165690  1.0  -0.1376
  C  C799  1  0.075980  0.788880  0.396290  1.0  0.6823
  C  C800  1  0.993940  0.735820  0.465780  1.0  0.6918
  C  C801  1  0.642740  0.767360  0.930010  1.0  -0.0966
  C  C802  1  0.625660  0.736540  0.941000  1.0  -0.1394
  C  C803  1  0.599490  0.742410  0.964080  1.0  0.702
  C  C804  1  0.630350  0.701100  0.930540  1.0  0.0217
  C  C805  1  0.652000  0.696580  0.908240  1.0  -0.1648
  C  C806  1  0.654440  0.658960  0.894770  1.0  0.6927
  C  C807  1  0.669160  0.727350  0.896790  1.0  -0.0318
  C  C808  1  0.664470  0.761790  0.908100  1.0  0.1335
  C  C809  1  0.668260  0.828630  0.894900  1.0  -0.0284
  C  C810  1  0.693760  0.847840  0.880940  1.0  0.0018
  C  C811  1  0.695370  0.887010  0.873000  1.0  -0.029
  C  C812  1  0.664940  0.907920  0.874450  1.0  -0.1014
  C  C813  1  0.728000  0.903710  0.865550  1.0  -0.1399
  C  C814  1  0.726200  0.940390  0.857280  1.0  -0.136
  C  C815  1  0.664500  0.944850  0.866070  1.0  -0.1584
  C  C816  1  0.694800  0.960800  0.856990  1.0  0.2118
  C  C817  1  0.716000  0.009760  0.827180  1.0  0.2785
  C  C818  1  0.720500  0.989190  0.806840  1.0  -0.0892
  C  C819  1  0.736000  0.040910  0.827700  1.0  -0.2006
  C  C820  1  0.673200  0.025140  0.862310  1.0  0.3164
  C  C821  1  0.662300  0.055520  0.852370  1.0  -0.1011
  C  C822  1  0.740550  0.998720  0.784590  1.0  -0.1231
  C  C823  1  0.758000  0.029670  0.783980  1.0  0.1172
  C  C824  1  0.758400  0.050510  0.806070  1.0  -0.0445
  C  C825  1  0.630600  0.078200  0.888510  1.0  0.0211
  C  C826  1  0.639000  0.082100  0.864810  1.0  -0.1289
  C  C827  1  0.651100  0.051790  0.903250  1.0  -0.1297
  C  C828  1  0.669300  0.023250  0.888510  1.0  -0.1967
  C  C829  1  0.791410  0.022220  0.740200  1.0  -0.0554
  C  C830  1  0.781200  0.039850  0.761410  1.0  0.1018
  C  C831  1  0.598420  0.141130  0.896470  1.0  -0.0352
  C  C832  1  0.606900  0.106700  0.901860  1.0  0.091
  C  C833  1  0.846560  0.999990  0.665490  1.0  -0.1535
  C  C834  1  0.829140  0.004360  0.689840  1.0  -0.0805
  C  C835  1  0.844640  0.069900  0.689200  1.0  -0.0476
  C  C836  1  0.828830  0.039640  0.701060  1.0  0.1279
  C  C837  1  0.537480  0.260700  0.931410  1.0  0.0083
  C  C838  1  0.562550  0.255500  0.911460  1.0  -0.1405
  C  C839  1  0.523600  0.229810  0.944900  1.0  -0.1274
  C  C840  1  0.575720  0.220500  0.905770  1.0  -0.0859
  C  C841  1  0.536420  0.195030  0.939260  1.0  -0.0614
  C  C842  1  0.562890  0.190320  0.920280  1.0  0.1612
  C  C843  1  0.878950  0.098920  0.651980  1.0  0.688
  C  C844  1  0.845870  0.963120  0.651700  1.0  0.691
  C  C845  1  0.863340  0.030490  0.654030  1.0  0.0285
  C  C846  1  0.862600  0.065490  0.665690  1.0  -0.1376
  C  C847  1  0.575980  0.288880  0.896290  1.0  0.6823
  C  C848  1  0.493940  0.235820  0.965780  1.0  0.6918
  C  C849  1  0.267360  0.857260  0.569990  1.0  -0.0982
  C  C850  1  0.236540  0.874340  0.559000  1.0  -0.1366
  C  C851  1  0.242410  0.900510  0.535920  1.0  0.702
  C  C852  1  0.201100  0.869650  0.569460  1.0  0.0202
  C  C853  1  0.196580  0.848000  0.591760  1.0  -0.1641
  C  C854  1  0.158960  0.845560  0.605230  1.0  0.6926
  C  C855  1  0.227350  0.830840  0.603210  1.0  -0.0296
  C  C856  1  0.261790  0.835530  0.591900  1.0  0.1328
  C  C857  1  0.328630  0.831740  0.605100  1.0  -0.0303
  C  C858  1  0.347840  0.806240  0.619060  1.0  0.002
  C  C859  1  0.387010  0.804630  0.627000  1.0  -0.0292
  C  C860  1  0.407920  0.835060  0.625550  1.0  -0.1053
  C  C861  1  0.403710  0.772000  0.634450  1.0  -0.1395
  C  C862  1  0.440390  0.773800  0.642720  1.0  -0.1378
  C  C863  1  0.444850  0.835500  0.633930  1.0  -0.1569
  C  C864  1  0.460800  0.805200  0.643010  1.0  0.2098
  C  C865  1  0.509760  0.784000  0.672820  1.0  0.28
  C  C866  1  0.489190  0.779500  0.693160  1.0  -0.0844
  C  C867  1  0.540910  0.764000  0.672300  1.0  -0.2005
  C  C868  1  0.525140  0.826800  0.637690  1.0  0.3123
  C  C869  1  0.555520  0.837700  0.647630  1.0  -0.0978
  C  C870  1  0.498720  0.759450  0.715410  1.0  -0.127
  C  C871  1  0.529670  0.742000  0.716020  1.0  0.1185
  C  C872  1  0.550510  0.741600  0.693930  1.0  -0.0466
  C  C873  1  0.578200  0.869400  0.611490  1.0  0.0214
  C  C874  1  0.582100  0.861000  0.635190  1.0  -0.1277
  C  C875  1  0.551790  0.848900  0.596750  1.0  -0.1281
  C  C876  1  0.523250  0.830700  0.611490  1.0  -0.199
  C  C877  1  0.522220  0.708590  0.759800  1.0  -0.0558
  C  C878  1  0.539850  0.718800  0.738590  1.0  0.1027
  C  C879  1  0.641130  0.901580  0.603530  1.0  -0.0348
  C  C880  1  0.606700  0.893100  0.598140  1.0  0.0897
  C  C881  1  0.499990  0.653440  0.834510  1.0  -0.1545
  C  C882  1  0.504360  0.670860  0.810160  1.0  -0.083
  C  C883  1  0.569900  0.655360  0.810800  1.0  -0.0483
  C  C884  1  0.539640  0.671170  0.798940  1.0  0.1285
  C  C885  1  0.760700  0.962520  0.568590  1.0  0.0066
  C  C886  1  0.755500  0.937450  0.588540  1.0  -0.141
  C  C887  1  0.729810  0.976400  0.555100  1.0  -0.1278
  C  C888  1  0.720500  0.924280  0.594230  1.0  -0.0827
  C  C889  1  0.695030  0.963580  0.560740  1.0  -0.0607
  C  C890  1  0.690320  0.937110  0.579720  1.0  0.1608
  C  C891  1  0.598920  0.621050  0.848020  1.0  0.6862
  C  C892  1  0.463120  0.654130  0.848300  1.0  0.6913
  C  C893  1  0.530490  0.636660  0.845970  1.0  0.0291
  C  C894  1  0.565490  0.637400  0.834310  1.0  -0.137
  C  C895  1  0.788880  0.924020  0.603710  1.0  0.6824
  C  C896  1  0.735820  0.006060  0.534220  1.0  0.6903
  C  C897  1  0.767360  0.357260  0.069990  1.0  -0.0982
  C  C898  1  0.736540  0.374340  0.059000  1.0  -0.1366
  C  C899  1  0.742410  0.400510  0.035920  1.0  0.702
  C  C900  1  0.701100  0.369650  0.069460  1.0  0.0202
  C  C901  1  0.696580  0.348000  0.091760  1.0  -0.1641
  C  C902  1  0.658960  0.345560  0.105230  1.0  0.6926
  C  C903  1  0.727350  0.330840  0.103210  1.0  -0.0296
  C  C904  1  0.761790  0.335530  0.091900  1.0  0.1328
  C  C905  1  0.828630  0.331740  0.105100  1.0  -0.0303
  C  C906  1  0.847840  0.306240  0.119060  1.0  0.002
  C  C907  1  0.887010  0.304630  0.127000  1.0  -0.0292
  C  C908  1  0.907920  0.335060  0.125550  1.0  -0.1053
  C  C909  1  0.903710  0.272000  0.134450  1.0  -0.1395
  C  C910  1  0.940390  0.273800  0.142720  1.0  -0.1378
  C  C911  1  0.944850  0.335500  0.133930  1.0  -0.1569
  C  C912  1  0.960800  0.305200  0.143010  1.0  0.2098
  C  C913  1  0.009760  0.284000  0.172820  1.0  0.28
  C  C914  1  0.989190  0.279500  0.193160  1.0  -0.0844
  C  C915  1  0.040910  0.264000  0.172300  1.0  -0.2005
  C  C916  1  0.025140  0.326800  0.137690  1.0  0.3123
  C  C917  1  0.055520  0.337700  0.147630  1.0  -0.0978
  C  C918  1  0.998720  0.259450  0.215410  1.0  -0.1257
  C  C919  1  0.029670  0.242000  0.216020  1.0  0.1185
  C  C920  1  0.050510  0.241600  0.193930  1.0  -0.0466
  C  C921  1  0.078200  0.369400  0.111490  1.0  0.0214
  C  C922  1  0.082100  0.361000  0.135190  1.0  -0.1277
  C  C923  1  0.051790  0.348900  0.096750  1.0  -0.1281
  C  C924  1  0.023250  0.330700  0.111490  1.0  -0.199
  C  C925  1  0.022220  0.208590  0.259800  1.0  -0.0558
  C  C926  1  0.039850  0.218800  0.238590  1.0  0.1027
  C  C927  1  0.141130  0.401580  0.103530  1.0  -0.0348
  C  C928  1  0.106700  0.393100  0.098140  1.0  0.0897
  C  C929  1  0.999990  0.153440  0.334510  1.0  -0.1545
  C  C930  1  0.004360  0.170860  0.310160  1.0  -0.083
  C  C931  1  0.069900  0.155360  0.310800  1.0  -0.0483
  C  C932  1  0.039640  0.171170  0.298940  1.0  0.1285
  C  C933  1  0.260700  0.462520  0.068590  1.0  0.0066
  C  C934  1  0.255500  0.437450  0.088540  1.0  -0.141
  C  C935  1  0.229810  0.476400  0.055100  1.0  -0.1278
  C  C936  1  0.220500  0.424280  0.094230  1.0  -0.0827
  C  C937  1  0.195030  0.463580  0.060740  1.0  -0.0607
  C  C938  1  0.190320  0.437110  0.079720  1.0  0.1608
  C  C939  1  0.098920  0.121050  0.348020  1.0  0.6862
  C  C940  1  0.963120  0.154130  0.348300  1.0  0.6913
  C  C941  1  0.030490  0.136660  0.345970  1.0  0.0291
  C  C942  1  0.065490  0.137400  0.334310  1.0  -0.137
  C  C943  1  0.288880  0.424020  0.103710  1.0  0.6824
  C  C944  1  0.235820  0.506060  0.034220  1.0  0.6903
  C  C945  1  0.732640  0.142740  0.569990  1.0  -0.0986
  C  C946  1  0.763460  0.125660  0.559000  1.0  -0.1369
  C  C947  1  0.757590  0.099490  0.535920  1.0  0.7017
  C  C948  1  0.798900  0.130350  0.569460  1.0  0.0204
  C  C949  1  0.803420  0.152000  0.591760  1.0  -0.1637
  C  C950  1  0.841040  0.154440  0.605230  1.0  0.6928
  C  C951  1  0.772650  0.169160  0.603210  1.0  -0.0294
  C  C952  1  0.738210  0.164470  0.591900  1.0  0.1331
  C  C953  1  0.671370  0.168260  0.605100  1.0  -0.0287
  C  C954  1  0.652160  0.193760  0.619060  1.0  0.0011
  C  C955  1  0.612990  0.195370  0.627000  1.0  -0.0284
  C  C956  1  0.592080  0.164940  0.625550  1.0  -0.1072
  C  C957  1  0.596290  0.228000  0.634450  1.0  -0.1418
  C  C958  1  0.559610  0.226200  0.642720  1.0  -0.1366
  C  C959  1  0.555150  0.164500  0.633930  1.0  -0.1578
  C  C960  1  0.539200  0.194800  0.643010  1.0  0.2099
  C  C961  1  0.490240  0.216000  0.672820  1.0  0.2794
  C  C962  1  0.510810  0.220500  0.693160  1.0  -0.083
  C  C963  1  0.459090  0.236000  0.672300  1.0  -0.204
  C  C964  1  0.474860  0.173200  0.637690  1.0  0.3118
  C  C965  1  0.444480  0.162300  0.647630  1.0  -0.0969
  C  C966  1  0.501280  0.240550  0.715410  1.0  -0.1237
  C  C967  1  0.470330  0.258000  0.716020  1.0  0.1182
  C  C968  1  0.449490  0.258400  0.693930  1.0  -0.0448
  C  C969  1  0.421800  0.130600  0.611490  1.0  0.02
  C  C970  1  0.417900  0.139000  0.635190  1.0  -0.1297
  C  C971  1  0.448210  0.151100  0.596750  1.0  -0.1283
  C  C972  1  0.476750  0.169300  0.611490  1.0  -0.1994
  C  C973  1  0.477780  0.291410  0.759800  1.0  -0.0565
  C  C974  1  0.460150  0.281200  0.738590  1.0  0.1013
  C  C975  1  0.358870  0.098420  0.603530  1.0  -0.0358
  C  C976  1  0.393300  0.106900  0.598140  1.0  0.0882
  C  C977  1  0.500010  0.346560  0.834510  1.0  -0.1541
  C  C978  1  0.495640  0.329140  0.810160  1.0  -0.0822
  C  C979  1  0.430100  0.344640  0.810800  1.0  -0.0486
  C  C980  1  0.460360  0.328830  0.798940  1.0  0.1282
  C  C981  1  0.239300  0.037480  0.568590  1.0  0.0061
  C  C982  1  0.244500  0.062550  0.588540  1.0  -0.1413
  C  C983  1  0.270190  0.023600  0.555100  1.0  -0.1279
  C  C984  1  0.279500  0.075720  0.594230  1.0  -0.0833
  C  C985  1  0.304970  0.036420  0.560740  1.0  -0.058
  C  C986  1  0.309680  0.062890  0.579720  1.0  0.1612
  C  C987  1  0.401080  0.378950  0.848020  1.0  0.6861
  C  C988  1  0.536880  0.345870  0.848300  1.0  0.6905
  C  C989  1  0.469510  0.363340  0.845970  1.0  0.0288
  C  C990  1  0.434510  0.362600  0.834310  1.0  -0.1371
  C  C991  1  0.211120  0.075980  0.603710  1.0  0.6825
  C  C992  1  0.264180  0.993940  0.534220  1.0  0.6904
  C  C993  1  0.232640  0.642740  0.069990  1.0  -0.0986
  C  C994  1  0.263460  0.625660  0.059000  1.0  -0.1369
  C  C995  1  0.257590  0.599490  0.035920  1.0  0.7017
  C  C996  1  0.298900  0.630350  0.069460  1.0  0.0204
  C  C997  1  0.303420  0.652000  0.091760  1.0  -0.1637
  C  C998  1  0.341040  0.654440  0.105230  1.0  0.6928
  C  C999  1  0.272650  0.669160  0.103210  1.0  -0.0294
  C  C1000  1  0.238210  0.664470  0.091900  1.0  0.1331
  C  C1001  1  0.171370  0.668260  0.105100  1.0  -0.0287
  C  C1002  1  0.152160  0.693760  0.119060  1.0  0.0011
  C  C1003  1  0.112990  0.695370  0.127000  1.0  -0.0284
  C  C1004  1  0.092080  0.664940  0.125550  1.0  -0.1072
  C  C1005  1  0.096290  0.728000  0.134450  1.0  -0.1418
  C  C1006  1  0.059610  0.726200  0.142720  1.0  -0.1366
  C  C1007  1  0.055150  0.664500  0.133930  1.0  -0.1578
  C  C1008  1  0.039200  0.694800  0.143010  1.0  0.2099
  C  C1009  1  0.990240  0.716000  0.172820  1.0  0.2794
  C  C1010  1  0.010810  0.720500  0.193160  1.0  -0.083
  C  C1011  1  0.959090  0.736000  0.172300  1.0  -0.204
  C  C1012  1  0.974860  0.673200  0.137690  1.0  0.3118
  C  C1013  1  0.944480  0.662300  0.147630  1.0  -0.0969
  C  C1014  1  0.001280  0.740550  0.215410  1.0  -0.1222
  C  C1015  1  0.970330  0.758000  0.216020  1.0  0.1182
  C  C1016  1  0.949490  0.758400  0.193930  1.0  -0.0448
  C  C1017  1  0.921800  0.630600  0.111490  1.0  0.02
  C  C1018  1  0.917900  0.639000  0.135190  1.0  -0.1297
  C  C1019  1  0.948210  0.651100  0.096750  1.0  -0.1283
  C  C1020  1  0.976750  0.669300  0.111490  1.0  -0.1994
  C  C1021  1  0.977780  0.791410  0.259800  1.0  -0.0565
  C  C1022  1  0.960150  0.781200  0.238590  1.0  0.1013
  C  C1023  1  0.858870  0.598420  0.103530  1.0  -0.0358
  C  C1024  1  0.893300  0.606900  0.098140  1.0  0.0882
  C  C1025  1  0.000010  0.846560  0.334510  1.0  -0.1541
  C  C1026  1  0.995640  0.829140  0.310160  1.0  -0.0822
  C  C1027  1  0.930100  0.844640  0.310800  1.0  -0.0486
  C  C1028  1  0.960360  0.828830  0.298940  1.0  0.1282
  C  C1029  1  0.739300  0.537480  0.068590  1.0  0.0061
  C  C1030  1  0.744500  0.562550  0.088540  1.0  -0.1413
  C  C1031  1  0.770190  0.523600  0.055100  1.0  -0.1279
  C  C1032  1  0.779500  0.575720  0.094230  1.0  -0.0833
  C  C1033  1  0.804970  0.536420  0.060740  1.0  -0.058
  C  C1034  1  0.809680  0.562890  0.079720  1.0  0.1612
  C  C1035  1  0.901080  0.878950  0.348020  1.0  0.6861
  C  C1036  1  0.036880  0.845870  0.348300  1.0  0.6905
  C  C1037  1  0.969510  0.863340  0.345970  1.0  0.0288
  C  C1038  1  0.934510  0.862600  0.334310  1.0  -0.1371
  C  C1039  1  0.711120  0.575980  0.103710  1.0  0.6825
  C  C1040  1  0.764180  0.493940  0.034220  1.0  0.6904
  C  C1041  1  0.142740  0.267360  0.569990  1.0  -0.0966
  C  C1042  1  0.125660  0.236540  0.559000  1.0  -0.1383
  C  C1043  1  0.099490  0.242410  0.535920  1.0  0.7015
  C  C1044  1  0.130350  0.201100  0.569460  1.0  0.0204
  C  C1045  1  0.152000  0.196580  0.591760  1.0  -0.1647
  C  C1046  1  0.154440  0.158960  0.605230  1.0  0.6931
  C  C1047  1  0.169160  0.227350  0.603210  1.0  -0.0309
  C  C1048  1  0.164470  0.261790  0.591900  1.0  0.1333
  C  C1049  1  0.168260  0.328630  0.605100  1.0  -0.0283
  C  C1050  1  0.193760  0.347840  0.619060  1.0  0.0024
  C  C1051  1  0.195370  0.387010  0.627000  1.0  -0.0289
  C  C1052  1  0.164940  0.407920  0.625550  1.0  -0.1015
  C  C1053  1  0.228000  0.403710  0.634450  1.0  -0.1401
  C  C1054  1  0.226200  0.440390  0.642720  1.0  -0.1353
  C  C1055  1  0.164500  0.444850  0.633930  1.0  -0.1586
  C  C1056  1  0.194800  0.460800  0.643010  1.0  0.2119
  C  C1057  1  0.216000  0.509760  0.672820  1.0  0.2787
  C  C1058  1  0.220500  0.489190  0.693160  1.0  -0.0883
  C  C1059  1  0.236000  0.540910  0.672300  1.0  -0.1988
  C  C1060  1  0.173200  0.525140  0.637690  1.0  0.3165
  C  C1061  1  0.162300  0.555520  0.647630  1.0  -0.1003
  C  C1062  1  0.240550  0.498720  0.715410  1.0  -0.1256
  C  C1063  1  0.258000  0.529670  0.716020  1.0  0.1186
  C  C1064  1  0.258400  0.550510  0.693930  1.0  -0.0445
  C  C1065  1  0.130600  0.578200  0.611490  1.0  0.02
  C  C1066  1  0.139000  0.582100  0.635190  1.0  -0.1293
  C  C1067  1  0.151100  0.551790  0.596750  1.0  -0.1287
  C  C1068  1  0.169300  0.523250  0.611490  1.0  -0.1983
  C  C1069  1  0.291410  0.522220  0.759800  1.0  -0.0559
  C  C1070  1  0.281200  0.539850  0.738590  1.0  0.1011
  C  C1071  1  0.098420  0.641130  0.603530  1.0  -0.0354
  C  C1072  1  0.106900  0.606700  0.598140  1.0  0.0917
  C  C1073  1  0.346560  0.499990  0.834510  1.0  -0.1533
  C  C1074  1  0.329140  0.504360  0.810160  1.0  -0.0801
  C  C1075  1  0.344640  0.569900  0.810800  1.0  -0.0475
  C  C1076  1  0.328830  0.539640  0.798940  1.0  0.128
  C  C1077  1  0.037480  0.760700  0.568590  1.0  0.0084
  C  C1078  1  0.062550  0.755500  0.588540  1.0  -0.1406
  C  C1079  1  0.023600  0.729810  0.555100  1.0  -0.1278
  C  C1080  1  0.075720  0.720500  0.594230  1.0  -0.0853
  C  C1081  1  0.036420  0.695030  0.560740  1.0  -0.0612
  C  C1082  1  0.062890  0.690320  0.579720  1.0  0.1611
  C  C1083  1  0.378950  0.598920  0.848020  1.0  0.6879
  C  C1084  1  0.345870  0.463120  0.848300  1.0  0.6911
  C  C1085  1  0.363340  0.530490  0.845970  1.0  0.0284
  C  C1086  1  0.362600  0.565490  0.834310  1.0  -0.1378
  C  C1087  1  0.075980  0.788880  0.603710  1.0  0.6824
  C  C1088  1  0.993940  0.735820  0.534220  1.0  0.6913
  C  C1089  1  0.642740  0.767360  0.069990  1.0  -0.0966
  C  C1090  1  0.625660  0.736540  0.059000  1.0  -0.1383
  C  C1091  1  0.599490  0.742410  0.035920  1.0  0.7015
  C  C1092  1  0.630350  0.701100  0.069460  1.0  0.0204
  C  C1093  1  0.652000  0.696580  0.091760  1.0  -0.1647
  C  C1094  1  0.654440  0.658960  0.105230  1.0  0.6931
  C  C1095  1  0.669160  0.727350  0.103210  1.0  -0.0309
  C  C1096  1  0.664470  0.761790  0.091900  1.0  0.1333
  C  C1097  1  0.668260  0.828630  0.105100  1.0  -0.0283
  C  C1098  1  0.693760  0.847840  0.119060  1.0  0.0024
  C  C1099  1  0.695370  0.887010  0.127000  1.0  -0.0289
  C  C1100  1  0.664940  0.907920  0.125550  1.0  -0.1015
  C  C1101  1  0.728000  0.903710  0.134450  1.0  -0.1401
  C  C1102  1  0.726200  0.940390  0.142720  1.0  -0.1353
  C  C1103  1  0.664500  0.944850  0.133930  1.0  -0.1586
  C  C1104  1  0.694800  0.960800  0.143010  1.0  0.2119
  C  C1105  1  0.716000  0.009760  0.172820  1.0  0.2787
  C  C1106  1  0.720500  0.989190  0.193160  1.0  -0.0883
  C  C1107  1  0.736000  0.040910  0.172300  1.0  -0.1988
  C  C1108  1  0.673200  0.025140  0.137690  1.0  0.3165
  C  C1109  1  0.662300  0.055520  0.147630  1.0  -0.1003
  C  C1110  1  0.740550  0.998720  0.215410  1.0  -0.1239
  C  C1111  1  0.758000  0.029670  0.216020  1.0  0.1186
  C  C1112  1  0.758400  0.050510  0.193930  1.0  -0.0445
  C  C1113  1  0.630600  0.078200  0.111490  1.0  0.02
  C  C1114  1  0.639000  0.082100  0.135190  1.0  -0.1293
  C  C1115  1  0.651100  0.051790  0.096750  1.0  -0.1287
  C  C1116  1  0.669300  0.023250  0.111490  1.0  -0.1983
  C  C1117  1  0.791410  0.022220  0.259800  1.0  -0.0559
  C  C1118  1  0.781200  0.039850  0.238590  1.0  0.1011
  C  C1119  1  0.598420  0.141130  0.103530  1.0  -0.0354
  C  C1120  1  0.606900  0.106700  0.098140  1.0  0.0917
  C  C1121  1  0.846560  0.999990  0.334510  1.0  -0.1533
  C  C1122  1  0.829140  0.004360  0.310160  1.0  -0.0801
  C  C1123  1  0.844640  0.069900  0.310800  1.0  -0.0475
  C  C1124  1  0.828830  0.039640  0.298940  1.0  0.128
  C  C1125  1  0.537480  0.260700  0.068590  1.0  0.0084
  C  C1126  1  0.562550  0.255500  0.088540  1.0  -0.1406
  C  C1127  1  0.523600  0.229810  0.055100  1.0  -0.1278
  C  C1128  1  0.575720  0.220500  0.094230  1.0  -0.0853
  C  C1129  1  0.536420  0.195030  0.060740  1.0  -0.0612
  C  C1130  1  0.562890  0.190320  0.079720  1.0  0.1611
  C  C1131  1  0.878950  0.098920  0.348020  1.0  0.6879
  C  C1132  1  0.845870  0.963120  0.348300  1.0  0.6911
  C  C1133  1  0.863340  0.030490  0.345970  1.0  0.0284
  C  C1134  1  0.862600  0.065490  0.334310  1.0  -0.1378
  C  C1135  1  0.575980  0.288880  0.103710  1.0  0.6824
  C  C1136  1  0.493940  0.235820  0.034220  1.0  0.6913
  C  C1137  1  0.857260  0.732640  0.569990  1.0  -0.0968
  C  C1138  1  0.874340  0.763460  0.559000  1.0  -0.1368
  C  C1139  1  0.900510  0.757590  0.535920  1.0  0.7009
  C  C1140  1  0.869650  0.798900  0.569460  1.0  0.0211
  C  C1141  1  0.848000  0.803420  0.591760  1.0  -0.1647
  C  C1142  1  0.845560  0.841040  0.605230  1.0  0.6936
  C  C1143  1  0.830840  0.772650  0.603210  1.0  -0.0315
  C  C1144  1  0.835530  0.738210  0.591900  1.0  0.1311
  C  C1145  1  0.831740  0.671370  0.605100  1.0  -0.0297
  C  C1146  1  0.806240  0.652160  0.619060  1.0  0.0033
  C  C1147  1  0.804630  0.612990  0.627000  1.0  -0.0272
  C  C1148  1  0.835060  0.592080  0.625550  1.0  -0.1014
  C  C1149  1  0.772000  0.596290  0.634450  1.0  -0.1401
  C  C1150  1  0.773800  0.559610  0.642720  1.0  -0.1368
  C  C1151  1  0.835500  0.555150  0.633930  1.0  -0.1586
  C  C1152  1  0.805200  0.539200  0.643010  1.0  0.2118
  C  C1153  1  0.784000  0.490240  0.672820  1.0  0.2793
  C  C1154  1  0.779500  0.510810  0.693160  1.0  -0.0851
  C  C1155  1  0.764000  0.459090  0.672300  1.0  -0.1996
  C  C1156  1  0.826800  0.474860  0.637690  1.0  0.318
  C  C1157  1  0.837700  0.444480  0.647630  1.0  -0.1
  C  C1158  1  0.759450  0.501280  0.715410  1.0  -0.1249
  C  C1159  1  0.742000  0.470330  0.716020  1.0  0.1185
  C  C1160  1  0.741600  0.449490  0.693930  1.0  -0.0434
  C  C1161  1  0.869400  0.421800  0.611490  1.0  0.0209
  C  C1162  1  0.861000  0.417900  0.635190  1.0  -0.129
  C  C1163  1  0.848900  0.448210  0.596750  1.0  -0.1276
  C  C1164  1  0.830700  0.476750  0.611490  1.0  -0.1986
  C  C1165  1  0.708590  0.477780  0.759800  1.0  -0.0549
  C  C1166  1  0.718800  0.460150  0.738590  1.0  0.1013
  C  C1167  1  0.901580  0.358870  0.603530  1.0  -0.0369
  C  C1168  1  0.893100  0.393300  0.598140  1.0  0.0899
  C  C1169  1  0.653440  0.500010  0.834510  1.0  -0.1536
  C  C1170  1  0.670860  0.495640  0.810160  1.0  -0.0793
  C  C1171  1  0.655360  0.430100  0.810800  1.0  -0.049
  C  C1172  1  0.671170  0.460360  0.798940  1.0  0.1277
  C  C1173  1  0.962520  0.239300  0.568590  1.0  0.0102
  C  C1174  1  0.937450  0.244500  0.588540  1.0  -0.1404
  C  C1175  1  0.976400  0.270190  0.555100  1.0  -0.128
  C  C1176  1  0.924280  0.279500  0.594230  1.0  -0.0861
  C  C1177  1  0.963580  0.304970  0.560740  1.0  -0.0604
  C  C1178  1  0.937110  0.309680  0.579720  1.0  0.1611
  C  C1179  1  0.621050  0.401080  0.848020  1.0  0.6869
  C  C1180  1  0.654130  0.536880  0.848300  1.0  0.6914
  C  C1181  1  0.636660  0.469510  0.845970  1.0  0.0277
  C  C1182  1  0.637400  0.434510  0.834310  1.0  -0.1378
  C  C1183  1  0.924020  0.211120  0.603710  1.0  0.6824
  C  C1184  1  0.006060  0.264180  0.534220  1.0  0.6901
  C  C1185  1  0.357260  0.232640  0.069990  1.0  -0.0968
  C  C1186  1  0.374340  0.263460  0.059000  1.0  -0.1368
  C  C1187  1  0.400510  0.257590  0.035920  1.0  0.7009
  C  C1188  1  0.369650  0.298900  0.069460  1.0  0.0211
  C  C1189  1  0.348000  0.303420  0.091760  1.0  -0.1647
  C  C1190  1  0.345560  0.341040  0.105230  1.0  0.6936
  C  C1191  1  0.330840  0.272650  0.103210  1.0  -0.0315
  C  C1192  1  0.335530  0.238210  0.091900  1.0  0.1311
  C  C1193  1  0.331740  0.171370  0.105100  1.0  -0.0297
  C  C1194  1  0.306240  0.152160  0.119060  1.0  0.0033
  C  C1195  1  0.304630  0.112990  0.127000  1.0  -0.0272
  C  C1196  1  0.335060  0.092080  0.125550  1.0  -0.1014
  C  C1197  1  0.272000  0.096290  0.134450  1.0  -0.1401
  C  C1198  1  0.273800  0.059610  0.142720  1.0  -0.1368
  C  C1199  1  0.335500  0.055150  0.133930  1.0  -0.1586
  C  C1200  1  0.305200  0.039200  0.143010  1.0  0.2118
  C  C1201  1  0.284000  0.990240  0.172820  1.0  0.2793
  C  C1202  1  0.279500  0.010810  0.193160  1.0  -0.0851
  C  C1203  1  0.264000  0.959090  0.172300  1.0  -0.1996
  C  C1204  1  0.326800  0.974860  0.137690  1.0  0.318
  C  C1205  1  0.337700  0.944480  0.147630  1.0  -0.1
  C  C1206  1  0.259450  0.001280  0.215410  1.0  -0.1232
  C  C1207  1  0.242000  0.970330  0.216020  1.0  0.1185
  C  C1208  1  0.241600  0.949490  0.193930  1.0  -0.0434
  C  C1209  1  0.369400  0.921800  0.111490  1.0  0.0209
  C  C1210  1  0.361000  0.917900  0.135190  1.0  -0.129
  C  C1211  1  0.348900  0.948210  0.096750  1.0  -0.1276
  C  C1212  1  0.330700  0.976750  0.111490  1.0  -0.1986
  C  C1213  1  0.208590  0.977780  0.259800  1.0  -0.0549
  C  C1214  1  0.218800  0.960150  0.238590  1.0  0.1013
  C  C1215  1  0.401580  0.858870  0.103530  1.0  -0.0369
  C  C1216  1  0.393100  0.893300  0.098140  1.0  0.0899
  C  C1217  1  0.153440  0.000010  0.334510  1.0  -0.1536
  C  C1218  1  0.170860  0.995640  0.310160  1.0  -0.0793
  C  C1219  1  0.155360  0.930100  0.310800  1.0  -0.049
  C  C1220  1  0.171170  0.960360  0.298940  1.0  0.1277
  C  C1221  1  0.462520  0.739300  0.068590  1.0  0.0102
  C  C1222  1  0.437450  0.744500  0.088540  1.0  -0.1404
  C  C1223  1  0.476400  0.770190  0.055100  1.0  -0.128
  C  C1224  1  0.424280  0.779500  0.094230  1.0  -0.0861
  C  C1225  1  0.463580  0.804970  0.060740  1.0  -0.0604
  C  C1226  1  0.437110  0.809680  0.079720  1.0  0.1611
  C  C1227  1  0.121050  0.901080  0.348020  1.0  0.6869
  C  C1228  1  0.154130  0.036880  0.348300  1.0  0.6914
  C  C1229  1  0.136660  0.969510  0.345970  1.0  0.0277
  C  C1230  1  0.137400  0.934510  0.334310  1.0  -0.1378
  C  C1231  1  0.424020  0.711120  0.103710  1.0  0.6824
  C  C1232  1  0.506060  0.764180  0.034220  1.0  0.6901
  N  N1233  1  0.706010  0.180890  0.395420  1.0  0.1544
  N  N1234  1  0.709350  0.214590  0.383780  1.0  -0.3195
  N  N1235  1  0.676090  0.221990  0.375110  1.0  -0.1641
  N  N1236  1  0.500960  0.195550  0.349150  1.0  -0.1352
  N  N1237  1  0.455710  0.311260  0.225650  1.0  0.0272
  N  N1238  1  0.345700  0.078120  0.415580  1.0  0.0209
  N  N1239  1  0.370420  0.078510  0.436050  1.0  -0.3173
  N  N1240  1  0.400230  0.096800  0.427300  1.0  -0.2446
  N  N1241  1  0.425050  0.317000  0.238900  1.0  -0.1962
  N  N1242  1  0.427180  0.298500  0.260390  1.0  -0.1882
  N  N1243  1  0.206010  0.680890  0.895420  1.0  0.1544
  N  N1244  1  0.209350  0.714590  0.883780  1.0  -0.3195
  N  N1245  1  0.176090  0.721990  0.875110  1.0  -0.1641
  N  N1246  1  0.000960  0.695550  0.849150  1.0  -0.1352
  N  N1247  1  0.955710  0.811260  0.725650  1.0  0.0272
  N  N1248  1  0.845700  0.578120  0.915580  1.0  0.0209
  N  N1249  1  0.870420  0.578510  0.936050  1.0  -0.3173
  N  N1250  1  0.900230  0.596800  0.927300  1.0  -0.2446
  N  N1251  1  0.925050  0.817000  0.738900  1.0  -0.1962
  N  N1252  1  0.927180  0.798500  0.760390  1.0  -0.1882
  N  N1253  1  0.293990  0.819110  0.395420  1.0  0.1542
  N  N1254  1  0.290650  0.785410  0.383780  1.0  -0.3176
  N  N1255  1  0.323910  0.778010  0.375110  1.0  -0.1638
  N  N1256  1  0.499040  0.804450  0.349150  1.0  -0.1352
  N  N1257  1  0.544290  0.688740  0.225650  1.0  0.0272
  N  N1258  1  0.654300  0.921880  0.415580  1.0  0.0206
  N  N1259  1  0.629580  0.921490  0.436050  1.0  -0.3184
  N  N1260  1  0.599770  0.903200  0.427300  1.0  -0.2411
  N  N1261  1  0.574950  0.683000  0.238900  1.0  -0.2036
  N  N1262  1  0.572820  0.701500  0.260390  1.0  -0.1948
  N  N1263  1  0.793990  0.319110  0.895420  1.0  0.1542
  N  N1264  1  0.790650  0.285410  0.883780  1.0  -0.3176
  N  N1265  1  0.823910  0.278010  0.875110  1.0  -0.1638
  N  N1266  1  0.999040  0.304450  0.849150  1.0  -0.1352
  N  N1267  1  0.044290  0.188740  0.725650  1.0  0.0272
  N  N1268  1  0.154300  0.421880  0.915580  1.0  0.0206
  N  N1269  1  0.129580  0.421490  0.936050  1.0  -0.3184
  N  N1270  1  0.099770  0.403200  0.927300  1.0  -0.2411
  N  N1271  1  0.074950  0.183000  0.738900  1.0  -0.2036
  N  N1272  1  0.072820  0.201500  0.760390  1.0  -0.1948
  N  N1273  1  0.819110  0.706010  0.395420  1.0  0.153
  N  N1274  1  0.785410  0.709350  0.383780  1.0  -0.3185
  N  N1275  1  0.778010  0.676090  0.375110  1.0  -0.1594
  N  N1276  1  0.804450  0.500960  0.349150  1.0  -0.1354
  N  N1277  1  0.688740  0.455710  0.225650  1.0  0.0265
  N  N1278  1  0.921880  0.345700  0.415580  1.0  0.0212
  N  N1279  1  0.921490  0.370420  0.436050  1.0  -0.318
  N  N1280  1  0.903200  0.400230  0.427300  1.0  -0.2414
  N  N1281  1  0.683000  0.425050  0.238900  1.0  -0.1966
  N  N1282  1  0.701500  0.427180  0.260390  1.0  -0.1881
  N  N1283  1  0.319110  0.206010  0.895420  1.0  0.153
  N  N1284  1  0.285410  0.209350  0.883780  1.0  -0.3185
  N  N1285  1  0.278010  0.176090  0.875110  1.0  -0.1594
  N  N1286  1  0.304450  0.000960  0.849150  1.0  -0.1354
  N  N1287  1  0.188740  0.955710  0.725650  1.0  0.0265
  N  N1288  1  0.421880  0.845700  0.915580  1.0  0.0212
  N  N1289  1  0.421490  0.870420  0.936050  1.0  -0.318
  N  N1290  1  0.403200  0.900230  0.927300  1.0  -0.2414
  N  N1291  1  0.183000  0.925050  0.738900  1.0  -0.1966
  N  N1292  1  0.201500  0.927180  0.760390  1.0  -0.1881
  N  N1293  1  0.180890  0.293990  0.395420  1.0  0.153
  N  N1294  1  0.214590  0.290650  0.383780  1.0  -0.3196
  N  N1295  1  0.221990  0.323910  0.375110  1.0  -0.1653
  N  N1296  1  0.195550  0.499040  0.349150  1.0  -0.1353
  N  N1297  1  0.311260  0.544290  0.225650  1.0  0.026
  N  N1298  1  0.078120  0.654300  0.415580  1.0  0.0215
  N  N1299  1  0.078510  0.629580  0.436050  1.0  -0.3188
  N  N1300  1  0.096800  0.599770  0.427300  1.0  -0.2412
  N  N1301  1  0.317000  0.574950  0.238900  1.0  -0.1953
  N  N1302  1  0.298500  0.572820  0.260390  1.0  -0.1871
  N  N1303  1  0.680890  0.793990  0.895420  1.0  0.153
  N  N1304  1  0.714590  0.790650  0.883780  1.0  -0.3196
  N  N1305  1  0.721990  0.823910  0.875110  1.0  -0.1653
  N  N1306  1  0.695550  0.999040  0.849150  1.0  -0.1353
  N  N1307  1  0.811260  0.044290  0.725650  1.0  0.026
  N  N1308  1  0.578120  0.154300  0.915580  1.0  0.0215
  N  N1309  1  0.578510  0.129580  0.936050  1.0  -0.3188
  N  N1310  1  0.596800  0.099770  0.927300  1.0  -0.2412
  N  N1311  1  0.817000  0.074950  0.738900  1.0  -0.1953
  N  N1312  1  0.798500  0.072820  0.760390  1.0  -0.1871
  N  N1313  1  0.293990  0.819110  0.604580  1.0  0.1539
  N  N1314  1  0.290650  0.785410  0.616220  1.0  -0.3178
  N  N1315  1  0.323910  0.778010  0.624890  1.0  -0.1625
  N  N1316  1  0.499040  0.804450  0.650850  1.0  -0.1354
  N  N1317  1  0.544290  0.688740  0.774350  1.0  0.0288
  N  N1318  1  0.654300  0.921880  0.584420  1.0  0.0204
  N  N1319  1  0.629580  0.921490  0.563950  1.0  -0.3159
  N  N1320  1  0.599770  0.903200  0.572700  1.0  -0.2422
  N  N1321  1  0.574950  0.683000  0.761100  1.0  -0.205
  N  N1322  1  0.572820  0.701500  0.739610  1.0  -0.1986
  N  N1323  1  0.793990  0.319110  0.104580  1.0  0.1539
  N  N1324  1  0.790650  0.285410  0.116220  1.0  -0.3178
  N  N1325  1  0.823910  0.278010  0.124890  1.0  -0.1625
  N  N1326  1  0.999040  0.304450  0.150850  1.0  -0.1354
  N  N1327  1  0.044290  0.188740  0.274350  1.0  0.0288
  N  N1328  1  0.154300  0.421880  0.084420  1.0  0.0204
  N  N1329  1  0.129580  0.421490  0.063950  1.0  -0.3159
  N  N1330  1  0.099770  0.403200  0.072700  1.0  -0.2422
  N  N1331  1  0.074950  0.183000  0.261100  1.0  -0.205
  N  N1332  1  0.072820  0.201500  0.239610  1.0  -0.1986
  N  N1333  1  0.706010  0.180890  0.604580  1.0  0.154
  N  N1334  1  0.709350  0.214590  0.616220  1.0  -0.3187
  N  N1335  1  0.676090  0.221990  0.624890  1.0  -0.1619
  N  N1336  1  0.500960  0.195550  0.650850  1.0  -0.1355
  N  N1337  1  0.455710  0.311260  0.774350  1.0  0.0286
  N  N1338  1  0.345700  0.078120  0.584420  1.0  0.0206
  N  N1339  1  0.370420  0.078510  0.563950  1.0  -0.317
  N  N1340  1  0.400230  0.096800  0.572700  1.0  -0.2464
  N  N1341  1  0.425050  0.317000  0.761100  1.0  -0.1958
  N  N1342  1  0.427180  0.298500  0.739610  1.0  -0.1902
  N  N1343  1  0.206010  0.680890  0.104580  1.0  0.154
  N  N1344  1  0.209350  0.714590  0.116220  1.0  -0.3187
  N  N1345  1  0.176090  0.721990  0.124890  1.0  -0.1619
  N  N1346  1  0.000960  0.695550  0.150850  1.0  -0.1355
  N  N1347  1  0.955710  0.811260  0.274350  1.0  0.0286
  N  N1348  1  0.845700  0.578120  0.084420  1.0  0.0206
  N  N1349  1  0.870420  0.578510  0.063950  1.0  -0.317
  N  N1350  1  0.900230  0.596800  0.072700  1.0  -0.2464
  N  N1351  1  0.925050  0.817000  0.261100  1.0  -0.1958
  N  N1352  1  0.927180  0.798500  0.239610  1.0  -0.1902
  N  N1353  1  0.180890  0.293990  0.604580  1.0  0.1529
  N  N1354  1  0.214590  0.290650  0.616220  1.0  -0.3184
  N  N1355  1  0.221990  0.323910  0.624890  1.0  -0.1631
  N  N1356  1  0.195550  0.499040  0.650850  1.0  -0.1355
  N  N1357  1  0.311260  0.544290  0.774350  1.0  0.0275
  N  N1358  1  0.078120  0.654300  0.584420  1.0  0.0211
  N  N1359  1  0.078510  0.629580  0.563950  1.0  -0.3163
  N  N1360  1  0.096800  0.599770  0.572700  1.0  -0.2418
  N  N1361  1  0.317000  0.574950  0.761100  1.0  -0.1958
  N  N1362  1  0.298500  0.572820  0.739610  1.0  -0.1922
  N  N1363  1  0.680890  0.793990  0.104580  1.0  0.1529
  N  N1364  1  0.714590  0.790650  0.116220  1.0  -0.3184
  N  N1365  1  0.721990  0.823910  0.124890  1.0  -0.1631
  N  N1366  1  0.695550  0.999040  0.150850  1.0  -0.1355
  N  N1367  1  0.811260  0.044290  0.274350  1.0  0.0275
  N  N1368  1  0.578120  0.154300  0.084420  1.0  0.0211
  N  N1369  1  0.578510  0.129580  0.063950  1.0  -0.3163
  N  N1370  1  0.596800  0.099770  0.072700  1.0  -0.2418
  N  N1371  1  0.817000  0.074950  0.261100  1.0  -0.1958
  N  N1372  1  0.798500  0.072820  0.239610  1.0  -0.1922
  N  N1373  1  0.819110  0.706010  0.604580  1.0  0.1527
  N  N1374  1  0.785410  0.709350  0.616220  1.0  -0.3195
  N  N1375  1  0.778010  0.676090  0.624890  1.0  -0.159
  N  N1376  1  0.804450  0.500960  0.650850  1.0  -0.1356
  N  N1377  1  0.688740  0.455710  0.774350  1.0  0.0279
  N  N1378  1  0.921880  0.345700  0.584420  1.0  0.0211
  N  N1379  1  0.921490  0.370420  0.563950  1.0  -0.3174
  N  N1380  1  0.903200  0.400230  0.572700  1.0  -0.2435
  N  N1381  1  0.683000  0.425050  0.761100  1.0  -0.1972
  N  N1382  1  0.701500  0.427180  0.739610  1.0  -0.1903
  N  N1383  1  0.319110  0.206010  0.104580  1.0  0.1527
  N  N1384  1  0.285410  0.209350  0.116220  1.0  -0.3195
  N  N1385  1  0.278010  0.176090  0.124890  1.0  -0.159
  N  N1386  1  0.304450  0.000960  0.150850  1.0  -0.1356
  N  N1387  1  0.188740  0.955710  0.274350  1.0  0.0279
  N  N1388  1  0.421880  0.845700  0.084420  1.0  0.0211
  N  N1389  1  0.421490  0.870420  0.063950  1.0  -0.3174
  N  N1390  1  0.403200  0.900230  0.072700  1.0  -0.2435
  N  N1391  1  0.183000  0.925050  0.261100  1.0  -0.1972
  N  N1392  1  0.201500  0.927180  0.239610  1.0  -0.1903
  O  O1393  1  0.941750  0.099110  0.419740  1.0  -0.6663
  O  O1394  1  0.864750  0.211520  0.323970  1.0  -0.6563
  O  O1395  1  0.725510  0.096270  0.472710  1.0  -0.5925
  O  O1396  1  0.866950  0.138270  0.406660  1.0  -0.563
  O  O1397  1  0.786370  0.084530  0.473070  1.0  -0.5682
  O  O1398  1  0.842420  0.172940  0.374820  1.0  -0.5455
  O  O1399  1  0.539950  0.365800  0.132240  1.0  -0.5571
  O  O1400  1  0.408170  0.395610  0.131100  1.0  -0.5637
  O  O1401  1  0.562260  0.326680  0.161670  1.0  -0.5642
  O  O1402  1  0.370660  0.374400  0.162790  1.0  -0.5657
  O  O1403  1  0.179730  0.068600  0.405530  1.0  -0.564
  O  O1404  1  0.217160  0.094850  0.376220  1.0  -0.5589
  O  O1405  1  0.231550  0.990260  0.472990  1.0  -0.5672
  O  O1406  1  0.292920  0.978330  0.473440  1.0  -0.5611
  O  O1407  1  0.441750  0.599110  0.919740  1.0  -0.6663
  O  O1408  1  0.364750  0.711520  0.823970  1.0  -0.6563
  O  O1409  1  0.225510  0.596270  0.972710  1.0  -0.5925
  O  O1410  1  0.366950  0.638270  0.906660  1.0  -0.563
  O  O1411  1  0.286370  0.584530  0.973070  1.0  -0.5682
  O  O1412  1  0.342420  0.672940  0.874820  1.0  -0.5455
  O  O1413  1  0.039950  0.865800  0.632240  1.0  -0.5571
  O  O1414  1  0.908170  0.895610  0.631100  1.0  -0.5637
  O  O1415  1  0.062260  0.826680  0.661670  1.0  -0.5642
  O  O1416  1  0.870660  0.874400  0.662790  1.0  -0.5657
  O  O1417  1  0.679730  0.568600  0.905530  1.0  -0.564
  O  O1418  1  0.717160  0.594850  0.876220  1.0  -0.5589
  O  O1419  1  0.731550  0.490260  0.972990  1.0  -0.5672
  O  O1420  1  0.792920  0.478330  0.973440  1.0  -0.5611
  O  O1421  1  0.058250  0.900890  0.419740  1.0  -0.6657
  O  O1422  1  0.135250  0.788480  0.323970  1.0  -0.6546
  O  O1423  1  0.274490  0.903730  0.472710  1.0  -0.5928
  O  O1424  1  0.133050  0.861730  0.406660  1.0  -0.5635
  O  O1425  1  0.213630  0.915470  0.473070  1.0  -0.5684
  O  O1426  1  0.157580  0.827060  0.374820  1.0  -0.5451
  O  O1427  1  0.460050  0.634200  0.132240  1.0  -0.5577
  O  O1428  1  0.591830  0.604390  0.131100  1.0  -0.5646
  O  O1429  1  0.437740  0.673320  0.161670  1.0  -0.5646
  O  O1430  1  0.629340  0.625600  0.162790  1.0  -0.5651
  O  O1431  1  0.820270  0.931400  0.405530  1.0  -0.5634
  O  O1432  1  0.782840  0.905150  0.376220  1.0  -0.5588
  O  O1433  1  0.768450  0.009740  0.472990  1.0  -0.5681
  O  O1434  1  0.707080  0.021670  0.473440  1.0  -0.5605
  O  O1435  1  0.558250  0.400890  0.919740  1.0  -0.6657
  O  O1436  1  0.635250  0.288480  0.823970  1.0  -0.6546
  O  O1437  1  0.774490  0.403730  0.972710  1.0  -0.5928
  O  O1438  1  0.633050  0.361730  0.906660  1.0  -0.5635
  O  O1439  1  0.713630  0.415470  0.973070  1.0  -0.5684
  O  O1440  1  0.657580  0.327060  0.874820  1.0  -0.5451
  O  O1441  1  0.960050  0.134200  0.632240  1.0  -0.5577
  O  O1442  1  0.091830  0.104390  0.631100  1.0  -0.5646
  O  O1443  1  0.937740  0.173320  0.661670  1.0  -0.5646
  O  O1444  1  0.129340  0.125600  0.662790  1.0  -0.5651
  O  O1445  1  0.320270  0.431400  0.905530  1.0  -0.5634
  O  O1446  1  0.282840  0.405150  0.876220  1.0  -0.5588
  O  O1447  1  0.268450  0.509740  0.972990  1.0  -0.5681
  O  O1448  1  0.207080  0.521670  0.973440  1.0  -0.5605
  O  O1449  1  0.900890  0.941750  0.419740  1.0  -0.6678
  O  O1450  1  0.788480  0.864750  0.323970  1.0  -0.6568
  O  O1451  1  0.903730  0.725510  0.472710  1.0  -0.5924
  O  O1452  1  0.861730  0.866950  0.406660  1.0  -0.5649
  O  O1453  1  0.915470  0.786370  0.473070  1.0  -0.5688
  O  O1454  1  0.827060  0.842420  0.374820  1.0  -0.5451
  O  O1455  1  0.634200  0.539950  0.132240  1.0  -0.5573
  O  O1456  1  0.604390  0.408170  0.131100  1.0  -0.5634
  O  O1457  1  0.673320  0.562260  0.161670  1.0  -0.5649
  O  O1458  1  0.625600  0.370660  0.162790  1.0  -0.5646
  O  O1459  1  0.931400  0.179730  0.405530  1.0  -0.5635
  O  O1460  1  0.905150  0.217160  0.376220  1.0  -0.5582
  O  O1461  1  0.009740  0.231550  0.472990  1.0  -0.5685
  O  O1462  1  0.021670  0.292920  0.473440  1.0  -0.5594
  O  O1463  1  0.400890  0.441750  0.919740  1.0  -0.6678
  O  O1464  1  0.288480  0.364750  0.823970  1.0  -0.6568
  O  O1465  1  0.403730  0.225510  0.972710  1.0  -0.5924
  O  O1466  1  0.361730  0.366950  0.906660  1.0  -0.5649
  O  O1467  1  0.415470  0.286370  0.973070  1.0  -0.5688
  O  O1468  1  0.327060  0.342420  0.874820  1.0  -0.5451
  O  O1469  1  0.134200  0.039950  0.632240  1.0  -0.5573
  O  O1470  1  0.104390  0.908170  0.631100  1.0  -0.5634
  O  O1471  1  0.173320  0.062260  0.661670  1.0  -0.5649
  O  O1472  1  0.125600  0.870660  0.662790  1.0  -0.5646
  O  O1473  1  0.431400  0.679730  0.905530  1.0  -0.5635
  O  O1474  1  0.405150  0.717160  0.876220  1.0  -0.5582
  O  O1475  1  0.509740  0.731550  0.972990  1.0  -0.5685
  O  O1476  1  0.521670  0.792920  0.973440  1.0  -0.5594
  O  O1477  1  0.099110  0.058250  0.419740  1.0  -0.6667
  O  O1478  1  0.211520  0.135250  0.323970  1.0  -0.6481
  O  O1479  1  0.096270  0.274490  0.472710  1.0  -0.5918
  O  O1480  1  0.138270  0.133050  0.406660  1.0  -0.5656
  O  O1481  1  0.084530  0.213630  0.473070  1.0  -0.5683
  O  O1482  1  0.172940  0.157580  0.374820  1.0  -0.545
  O  O1483  1  0.365800  0.460050  0.132240  1.0  -0.557
  O  O1484  1  0.395610  0.591830  0.131100  1.0  -0.5648
  O  O1485  1  0.326680  0.437740  0.161670  1.0  -0.5662
  O  O1486  1  0.374400  0.629340  0.162790  1.0  -0.5649
  O  O1487  1  0.068600  0.820270  0.405530  1.0  -0.563
  O  O1488  1  0.094850  0.782840  0.376220  1.0  -0.5589
  O  O1489  1  0.990260  0.768450  0.472990  1.0  -0.5682
  O  O1490  1  0.978330  0.707080  0.473440  1.0  -0.5607
  O  O1491  1  0.599110  0.558250  0.919740  1.0  -0.6667
  O  O1492  1  0.711520  0.635250  0.823970  1.0  -0.6481
  O  O1493  1  0.596270  0.774490  0.972710  1.0  -0.5918
  O  O1494  1  0.638270  0.633050  0.906660  1.0  -0.5656
  O  O1495  1  0.584530  0.713630  0.973070  1.0  -0.5683
  O  O1496  1  0.672940  0.657580  0.874820  1.0  -0.545
  O  O1497  1  0.865800  0.960050  0.632240  1.0  -0.557
  O  O1498  1  0.895610  0.091830  0.631100  1.0  -0.5648
  O  O1499  1  0.826680  0.937740  0.661670  1.0  -0.5662
  O  O1500  1  0.874400  0.129340  0.662790  1.0  -0.5649
  O  O1501  1  0.568600  0.320270  0.905530  1.0  -0.563
  O  O1502  1  0.594850  0.282840  0.876220  1.0  -0.5589
  O  O1503  1  0.490260  0.268450  0.972990  1.0  -0.5682
  O  O1504  1  0.478330  0.207080  0.973440  1.0  -0.5607
  O  O1505  1  0.058250  0.900890  0.580260  1.0  -0.6632
  O  O1506  1  0.135250  0.788480  0.676030  1.0  -0.6563
  O  O1507  1  0.274490  0.903730  0.527290  1.0  -0.5926
  O  O1508  1  0.133050  0.861730  0.593340  1.0  -0.5635
  O  O1509  1  0.213630  0.915470  0.526930  1.0  -0.5685
  O  O1510  1  0.157580  0.827060  0.625180  1.0  -0.5455
  O  O1511  1  0.460050  0.634200  0.867760  1.0  -0.5573
  O  O1512  1  0.591830  0.604390  0.868900  1.0  -0.5638
  O  O1513  1  0.437740  0.673320  0.838330  1.0  -0.5639
  O  O1514  1  0.629340  0.625600  0.837210  1.0  -0.5645
  O  O1515  1  0.820270  0.931400  0.594470  1.0  -0.563
  O  O1516  1  0.782840  0.905150  0.623780  1.0  -0.5592
  O  O1517  1  0.768450  0.009740  0.527010  1.0  -0.5683
  O  O1518  1  0.707080  0.021670  0.526560  1.0  -0.5609
  O  O1519  1  0.558250  0.400890  0.080260  1.0  -0.6632
  O  O1520  1  0.635250  0.288480  0.176030  1.0  -0.6563
  O  O1521  1  0.774490  0.403730  0.027290  1.0  -0.5926
  O  O1522  1  0.633050  0.361730  0.093340  1.0  -0.5635
  O  O1523  1  0.713630  0.415470  0.026930  1.0  -0.5685
  O  O1524  1  0.657580  0.327060  0.125180  1.0  -0.5455
  O  O1525  1  0.960050  0.134200  0.367760  1.0  -0.5573
  O  O1526  1  0.091830  0.104390  0.368900  1.0  -0.5638
  O  O1527  1  0.937740  0.173320  0.338330  1.0  -0.5639
  O  O1528  1  0.129340  0.125600  0.337210  1.0  -0.5645
  O  O1529  1  0.320270  0.431400  0.094470  1.0  -0.563
  O  O1530  1  0.282840  0.405150  0.123780  1.0  -0.5592
  O  O1531  1  0.268450  0.509740  0.027010  1.0  -0.5683
  O  O1532  1  0.207080  0.521670  0.026560  1.0  -0.5609
  O  O1533  1  0.941750  0.099110  0.580260  1.0  -0.6643
  O  O1534  1  0.864750  0.211520  0.676030  1.0  -0.6558
  O  O1535  1  0.725510  0.096270  0.527290  1.0  -0.5925
  O  O1536  1  0.866950  0.138270  0.593340  1.0  -0.5638
  O  O1537  1  0.786370  0.084530  0.526930  1.0  -0.5682
  O  O1538  1  0.842420  0.172940  0.625180  1.0  -0.5453
  O  O1539  1  0.539950  0.365800  0.867760  1.0  -0.5566
  O  O1540  1  0.408170  0.395610  0.868900  1.0  -0.5645
  O  O1541  1  0.562260  0.326680  0.838330  1.0  -0.5647
  O  O1542  1  0.370660  0.374400  0.837210  1.0  -0.5646
  O  O1543  1  0.179730  0.068600  0.594470  1.0  -0.5632
  O  O1544  1  0.217160  0.094850  0.623780  1.0  -0.5602
  O  O1545  1  0.231550  0.990260  0.527010  1.0  -0.5673
  O  O1546  1  0.292920  0.978330  0.526560  1.0  -0.5612
  O  O1547  1  0.441750  0.599110  0.080260  1.0  -0.6643
  O  O1548  1  0.364750  0.711520  0.176030  1.0  -0.6558
  O  O1549  1  0.225510  0.596270  0.027290  1.0  -0.5925
  O  O1550  1  0.366950  0.638270  0.093340  1.0  -0.5638
  O  O1551  1  0.286370  0.584530  0.026930  1.0  -0.5682
  O  O1552  1  0.342420  0.672940  0.125180  1.0  -0.5453
  O  O1553  1  0.039950  0.865800  0.367760  1.0  -0.5566
  O  O1554  1  0.908170  0.895610  0.368900  1.0  -0.5645
  O  O1555  1  0.062260  0.826680  0.338330  1.0  -0.5647
  O  O1556  1  0.870660  0.874400  0.337210  1.0  -0.5646
  O  O1557  1  0.679730  0.568600  0.094470  1.0  -0.5632
  O  O1558  1  0.717160  0.594850  0.123780  1.0  -0.5602
  O  O1559  1  0.731550  0.490260  0.027010  1.0  -0.5673
  O  O1560  1  0.792920  0.478330  0.026560  1.0  -0.5612
  O  O1561  1  0.099110  0.058250  0.580260  1.0  -0.6657
  O  O1562  1  0.211520  0.135250  0.676030  1.0  -0.6492
  O  O1563  1  0.096270  0.274490  0.527290  1.0  -0.5919
  O  O1564  1  0.138270  0.133050  0.593340  1.0  -0.5661
  O  O1565  1  0.084530  0.213630  0.526930  1.0  -0.5683
  O  O1566  1  0.172940  0.157580  0.625180  1.0  -0.5446
  O  O1567  1  0.365800  0.460050  0.867760  1.0  -0.5561
  O  O1568  1  0.395610  0.591830  0.868900  1.0  -0.5644
  O  O1569  1  0.326680  0.437740  0.838330  1.0  -0.5657
  O  O1570  1  0.374400  0.629340  0.837210  1.0  -0.5642
  O  O1571  1  0.068600  0.820270  0.594470  1.0  -0.5617
  O  O1572  1  0.094850  0.782840  0.623780  1.0  -0.5596
  O  O1573  1  0.990260  0.768450  0.527010  1.0  -0.5685
  O  O1574  1  0.978330  0.707080  0.526560  1.0  -0.5608
  O  O1575  1  0.599110  0.558250  0.080260  1.0  -0.6657
  O  O1576  1  0.711520  0.635250  0.176030  1.0  -0.6492
  O  O1577  1  0.596270  0.774490  0.027290  1.0  -0.5919
  O  O1578  1  0.638270  0.633050  0.093340  1.0  -0.5661
  O  O1579  1  0.584530  0.713630  0.026930  1.0  -0.5683
  O  O1580  1  0.672940  0.657580  0.125180  1.0  -0.5446
  O  O1581  1  0.865800  0.960050  0.367760  1.0  -0.5561
  O  O1582  1  0.895610  0.091830  0.368900  1.0  -0.5644
  O  O1583  1  0.826680  0.937740  0.338330  1.0  -0.5657
  O  O1584  1  0.874400  0.129340  0.337210  1.0  -0.5642
  O  O1585  1  0.568600  0.320270  0.094470  1.0  -0.5617
  O  O1586  1  0.594850  0.282840  0.123780  1.0  -0.5596
  O  O1587  1  0.490260  0.268450  0.027010  1.0  -0.5685
  O  O1588  1  0.478330  0.207080  0.026560  1.0  -0.5608
  O  O1589  1  0.900890  0.941750  0.580260  1.0  -0.6653
  O  O1590  1  0.788480  0.864750  0.676030  1.0  -0.6558
  O  O1591  1  0.903730  0.725510  0.527290  1.0  -0.5926
  O  O1592  1  0.861730  0.866950  0.593340  1.0  -0.5656
  O  O1593  1  0.915470  0.786370  0.526930  1.0  -0.569
  O  O1594  1  0.827060  0.842420  0.625180  1.0  -0.5451
  O  O1595  1  0.634200  0.539950  0.867760  1.0  -0.557
  O  O1596  1  0.604390  0.408170  0.868900  1.0  -0.5634
  O  O1597  1  0.673320  0.562260  0.838330  1.0  -0.565
  O  O1598  1  0.625600  0.370660  0.837210  1.0  -0.564
  O  O1599  1  0.931400  0.179730  0.594470  1.0  -0.5629
  O  O1600  1  0.905150  0.217160  0.623780  1.0  -0.559
  O  O1601  1  0.009740  0.231550  0.527010  1.0  -0.5687
  O  O1602  1  0.021670  0.292920  0.526560  1.0  -0.5596
  O  O1603  1  0.400890  0.441750  0.080260  1.0  -0.6653
  O  O1604  1  0.288480  0.364750  0.176030  1.0  -0.6558
  O  O1605  1  0.403730  0.225510  0.027290  1.0  -0.5926
  O  O1606  1  0.361730  0.366950  0.093340  1.0  -0.5656
  O  O1607  1  0.415470  0.286370  0.026930  1.0  -0.569
  O  O1608  1  0.327060  0.342420  0.125180  1.0  -0.5451
  O  O1609  1  0.134200  0.039950  0.367760  1.0  -0.557
  O  O1610  1  0.104390  0.908170  0.368900  1.0  -0.5634
  O  O1611  1  0.173320  0.062260  0.338330  1.0  -0.565
  O  O1612  1  0.125600  0.870660  0.337210  1.0  -0.564
  O  O1613  1  0.431400  0.679730  0.094470  1.0  -0.5629
  O  O1614  1  0.405150  0.717160  0.123780  1.0  -0.559
  O  O1615  1  0.509740  0.731550  0.027010  1.0  -0.5687
  O  O1616  1  0.521670  0.792920  0.026560  1.0  -0.5596
