# generated using pymatgen
data_AlPO4
_symmetry_space_group_name_H-M   'P 1'
_cell_length_a   51.36300000
_cell_length_b   51.36300000
_cell_length_c   51.36300000
_cell_angle_alpha   90.00000000
_cell_angle_beta   90.00000000
_cell_angle_gamma   90.00000000
_symmetry_Int_Tables_number   1
_chemical_formula_structural   AlPO4
_chemical_formula_sum   'Al768 P768 O3072'
_cell_volume   135503.69748915
_cell_formula_units_Z   768
loop_
 _symmetry_equiv_pos_site_id
 _symmetry_equiv_pos_as_xyz
  1  'x, y, z'
loop_
 _atom_site_type_symbol
 _atom_site_label
 _atom_site_symmetry_multiplicity
 _atom_site_fract_x
 _atom_site_fract_y
 _atom_site_fract_z
 _atom_site_occupancy
 _atom_site_charge
  Al  Al1  1  0.133800  0.329900  0.280500  1.0  1.8035
  Al  Al2  1  0.038400  0.355800  0.311200  1.0  1.7941
  Al  Al3  1  0.095300  0.361600  0.222400  1.0  1.9273
  Al  Al4  1  0.133800  0.829900  0.780500  1.0  1.8035
  Al  Al5  1  0.038400  0.855800  0.811200  1.0  1.7941
  Al  Al6  1  0.095300  0.861600  0.722400  1.0  1.9273
  Al  Al7  1  0.633800  0.329900  0.780500  1.0  1.8035
  Al  Al8  1  0.538400  0.355800  0.811200  1.0  1.7941
  Al  Al9  1  0.595300  0.361600  0.722400  1.0  1.9273
  Al  Al10  1  0.633800  0.829900  0.280500  1.0  1.8035
  Al  Al11  1  0.538400  0.855800  0.311200  1.0  1.7941
  Al  Al12  1  0.595300  0.861600  0.222400  1.0  1.9273
  Al  Al13  1  0.866200  0.670100  0.280500  1.0  1.793
  Al  Al14  1  0.961600  0.644200  0.311200  1.0  1.7957
  Al  Al15  1  0.904700  0.638400  0.222400  1.0  1.9412
  Al  Al16  1  0.866200  0.170100  0.780500  1.0  1.793
  Al  Al17  1  0.961600  0.144200  0.811200  1.0  1.7957
  Al  Al18  1  0.904700  0.138400  0.722400  1.0  1.9412
  Al  Al19  1  0.366200  0.670100  0.780500  1.0  1.793
  Al  Al20  1  0.461600  0.644200  0.811200  1.0  1.7957
  Al  Al21  1  0.404700  0.638400  0.722400  1.0  1.9412
  Al  Al22  1  0.366200  0.170100  0.280500  1.0  1.793
  Al  Al23  1  0.461600  0.144200  0.311200  1.0  1.7957
  Al  Al24  1  0.404700  0.138400  0.222400  1.0  1.9412
  Al  Al25  1  0.866200  0.329900  0.719500  1.0  1.8029
  Al  Al26  1  0.961600  0.355800  0.688800  1.0  1.7952
  Al  Al27  1  0.904700  0.361600  0.777600  1.0  1.9291
  Al  Al28  1  0.866200  0.829900  0.219500  1.0  1.8029
  Al  Al29  1  0.961600  0.855800  0.188800  1.0  1.7952
  Al  Al30  1  0.904700  0.861600  0.277600  1.0  1.9291
  Al  Al31  1  0.366200  0.329900  0.219500  1.0  1.8029
  Al  Al32  1  0.461600  0.355800  0.188800  1.0  1.7952
  Al  Al33  1  0.404700  0.361600  0.277600  1.0  1.9291
  Al  Al34  1  0.366200  0.829900  0.719500  1.0  1.8029
  Al  Al35  1  0.461600  0.855800  0.688800  1.0  1.7952
  Al  Al36  1  0.404700  0.861600  0.777600  1.0  1.9291
  Al  Al37  1  0.133800  0.670100  0.719500  1.0  1.7931
  Al  Al38  1  0.038400  0.644200  0.688800  1.0  1.7956
  Al  Al39  1  0.095300  0.638400  0.777600  1.0  1.9443
  Al  Al40  1  0.133800  0.170100  0.219500  1.0  1.7931
  Al  Al41  1  0.038400  0.144200  0.188800  1.0  1.7956
  Al  Al42  1  0.095300  0.138400  0.277600  1.0  1.9443
  Al  Al43  1  0.633800  0.670100  0.219500  1.0  1.7931
  Al  Al44  1  0.538400  0.644200  0.188800  1.0  1.7956
  Al  Al45  1  0.595300  0.638400  0.277600  1.0  1.9443
  Al  Al46  1  0.633800  0.170100  0.719500  1.0  1.7931
  Al  Al47  1  0.538400  0.144200  0.688800  1.0  1.7956
  Al  Al48  1  0.595300  0.138400  0.777600  1.0  1.9443
  Al  Al49  1  0.280500  0.133800  0.329900  1.0  1.8006
  Al  Al50  1  0.311200  0.038400  0.355800  1.0  1.7972
  Al  Al51  1  0.222400  0.095300  0.361600  1.0  1.9435
  Al  Al52  1  0.280500  0.633800  0.829900  1.0  1.8006
  Al  Al53  1  0.311200  0.538400  0.855800  1.0  1.7972
  Al  Al54  1  0.222400  0.595300  0.861600  1.0  1.9435
  Al  Al55  1  0.780500  0.133800  0.829900  1.0  1.8006
  Al  Al56  1  0.811200  0.038400  0.855800  1.0  1.7972
  Al  Al57  1  0.722400  0.095300  0.861600  1.0  1.9435
  Al  Al58  1  0.780500  0.633800  0.329900  1.0  1.8006
  Al  Al59  1  0.811200  0.538400  0.355800  1.0  1.7972
  Al  Al60  1  0.722400  0.595300  0.361600  1.0  1.9435
  Al  Al61  1  0.280500  0.866200  0.670100  1.0  1.8027
  Al  Al62  1  0.311200  0.961600  0.644200  1.0  1.7986
  Al  Al63  1  0.222400  0.904700  0.638400  1.0  1.9416
  Al  Al64  1  0.280500  0.366200  0.170100  1.0  1.8027
  Al  Al65  1  0.311200  0.461600  0.144200  1.0  1.7986
  Al  Al66  1  0.222400  0.404700  0.138400  1.0  1.9416
  Al  Al67  1  0.780500  0.866200  0.170100  1.0  1.8027
  Al  Al68  1  0.811200  0.961600  0.144200  1.0  1.7986
  Al  Al69  1  0.722400  0.904700  0.138400  1.0  1.9416
  Al  Al70  1  0.780500  0.366200  0.670100  1.0  1.8027
  Al  Al71  1  0.811200  0.461600  0.644200  1.0  1.7986
  Al  Al72  1  0.722400  0.404700  0.638400  1.0  1.9416
  Al  Al73  1  0.719500  0.866200  0.329900  1.0  1.8004
  Al  Al74  1  0.688800  0.961600  0.355800  1.0  1.7992
  Al  Al75  1  0.777600  0.904700  0.361600  1.0  1.9442
  Al  Al76  1  0.719500  0.366200  0.829900  1.0  1.8004
  Al  Al77  1  0.688800  0.461600  0.855800  1.0  1.7992
  Al  Al78  1  0.777600  0.404700  0.861600  1.0  1.9442
  Al  Al79  1  0.219500  0.866200  0.829900  1.0  1.8004
  Al  Al80  1  0.188800  0.961600  0.855800  1.0  1.7992
  Al  Al81  1  0.277600  0.904700  0.861600  1.0  1.9442
  Al  Al82  1  0.219500  0.366200  0.329900  1.0  1.8004
  Al  Al83  1  0.188800  0.461600  0.355800  1.0  1.7992
  Al  Al84  1  0.277600  0.404700  0.361600  1.0  1.9442
  Al  Al85  1  0.719500  0.133800  0.670100  1.0  1.803
  Al  Al86  1  0.688800  0.038400  0.644200  1.0  1.7966
  Al  Al87  1  0.777600  0.095300  0.638400  1.0  1.9408
  Al  Al88  1  0.719500  0.633800  0.170100  1.0  1.803
  Al  Al89  1  0.688800  0.538400  0.144200  1.0  1.7966
  Al  Al90  1  0.777600  0.595300  0.138400  1.0  1.9408
  Al  Al91  1  0.219500  0.133800  0.170100  1.0  1.803
  Al  Al92  1  0.188800  0.038400  0.144200  1.0  1.7966
  Al  Al93  1  0.277600  0.095300  0.138400  1.0  1.9408
  Al  Al94  1  0.219500  0.633800  0.670100  1.0  1.803
  Al  Al95  1  0.188800  0.538400  0.644200  1.0  1.7966
  Al  Al96  1  0.277600  0.595300  0.638400  1.0  1.9408
  Al  Al97  1  0.329900  0.280500  0.133800  1.0  1.8014
  Al  Al98  1  0.355800  0.311200  0.038400  1.0  1.7945
  Al  Al99  1  0.361600  0.222400  0.095300  1.0  1.9453
  Al  Al100  1  0.329900  0.780500  0.633800  1.0  1.8014
  Al  Al101  1  0.355800  0.811200  0.538400  1.0  1.7945
  Al  Al102  1  0.361600  0.722400  0.595300  1.0  1.9453
  Al  Al103  1  0.829900  0.280500  0.633800  1.0  1.8014
  Al  Al104  1  0.855800  0.311200  0.538400  1.0  1.7945
  Al  Al105  1  0.861600  0.222400  0.595300  1.0  1.9453
  Al  Al106  1  0.829900  0.780500  0.133800  1.0  1.8014
  Al  Al107  1  0.855800  0.811200  0.038400  1.0  1.7945
  Al  Al108  1  0.861600  0.722400  0.095300  1.0  1.9453
  Al  Al109  1  0.670100  0.280500  0.866200  1.0  1.8017
  Al  Al110  1  0.644200  0.311200  0.961600  1.0  1.793
  Al  Al111  1  0.638400  0.222400  0.904700  1.0  1.9447
  Al  Al112  1  0.670100  0.780500  0.366200  1.0  1.8017
  Al  Al113  1  0.644200  0.811200  0.461600  1.0  1.793
  Al  Al114  1  0.638400  0.722400  0.404700  1.0  1.9447
  Al  Al115  1  0.170100  0.280500  0.366200  1.0  1.8017
  Al  Al116  1  0.144200  0.311200  0.461600  1.0  1.793
  Al  Al117  1  0.138400  0.222400  0.404700  1.0  1.9447
  Al  Al118  1  0.170100  0.780500  0.866200  1.0  1.8017
  Al  Al119  1  0.144200  0.811200  0.961600  1.0  1.793
  Al  Al120  1  0.138400  0.722400  0.904700  1.0  1.9447
  Al  Al121  1  0.329900  0.719500  0.866200  1.0  1.8011
  Al  Al122  1  0.355800  0.688800  0.961600  1.0  1.7929
  Al  Al123  1  0.361600  0.777600  0.904700  1.0  1.9366
  Al  Al124  1  0.329900  0.219500  0.366200  1.0  1.8011
  Al  Al125  1  0.355800  0.188800  0.461600  1.0  1.7929
  Al  Al126  1  0.361600  0.277600  0.404700  1.0  1.9366
  Al  Al127  1  0.829900  0.719500  0.366200  1.0  1.8011
  Al  Al128  1  0.855800  0.688800  0.461600  1.0  1.7929
  Al  Al129  1  0.861600  0.777600  0.404700  1.0  1.9366
  Al  Al130  1  0.829900  0.219500  0.866200  1.0  1.8011
  Al  Al131  1  0.855800  0.188800  0.961600  1.0  1.7929
  Al  Al132  1  0.861600  0.277600  0.904700  1.0  1.9366
  Al  Al133  1  0.670100  0.719500  0.133800  1.0  1.8014
  Al  Al134  1  0.644200  0.688800  0.038400  1.0  1.7949
  Al  Al135  1  0.638400  0.777600  0.095300  1.0  1.9352
  Al  Al136  1  0.670100  0.219500  0.633800  1.0  1.8014
  Al  Al137  1  0.644200  0.188800  0.538400  1.0  1.7949
  Al  Al138  1  0.638400  0.277600  0.595300  1.0  1.9352
  Al  Al139  1  0.170100  0.719500  0.633800  1.0  1.8014
  Al  Al140  1  0.144200  0.688800  0.538400  1.0  1.7949
  Al  Al141  1  0.138400  0.777600  0.595300  1.0  1.9352
  Al  Al142  1  0.170100  0.219500  0.133800  1.0  1.8014
  Al  Al143  1  0.144200  0.188800  0.038400  1.0  1.7949
  Al  Al144  1  0.138400  0.277600  0.095300  1.0  1.9352
  Al  Al145  1  0.829900  0.633800  0.219500  1.0  1.8011
  Al  Al146  1  0.855800  0.538400  0.188800  1.0  1.7928
  Al  Al147  1  0.861600  0.595300  0.277600  1.0  1.9453
  Al  Al148  1  0.829900  0.133800  0.719500  1.0  1.8011
  Al  Al149  1  0.855800  0.038400  0.688800  1.0  1.7928
  Al  Al150  1  0.861600  0.095300  0.777600  1.0  1.9453
  Al  Al151  1  0.329900  0.633800  0.719500  1.0  1.8011
  Al  Al152  1  0.355800  0.538400  0.688800  1.0  1.7928
  Al  Al153  1  0.361600  0.595300  0.777600  1.0  1.9453
  Al  Al154  1  0.329900  0.133800  0.219500  1.0  1.8011
  Al  Al155  1  0.355800  0.038400  0.188800  1.0  1.7928
  Al  Al156  1  0.361600  0.095300  0.277600  1.0  1.9453
  Al  Al157  1  0.170100  0.366200  0.219500  1.0  1.8011
  Al  Al158  1  0.144200  0.461600  0.188800  1.0  1.7947
  Al  Al159  1  0.138400  0.404700  0.277600  1.0  1.945
  Al  Al160  1  0.170100  0.866200  0.719500  1.0  1.8011
  Al  Al161  1  0.144200  0.961600  0.688800  1.0  1.7947
  Al  Al162  1  0.138400  0.904700  0.777600  1.0  1.945
  Al  Al163  1  0.670100  0.366200  0.719500  1.0  1.8011
  Al  Al164  1  0.644200  0.461600  0.688800  1.0  1.7947
  Al  Al165  1  0.638400  0.404700  0.777600  1.0  1.945
  Al  Al166  1  0.670100  0.866200  0.219500  1.0  1.8011
  Al  Al167  1  0.644200  0.961600  0.188800  1.0  1.7947
  Al  Al168  1  0.638400  0.904700  0.277600  1.0  1.945
  Al  Al169  1  0.829900  0.366200  0.780500  1.0  1.8016
  Al  Al170  1  0.855800  0.461600  0.811200  1.0  1.794
  Al  Al171  1  0.861600  0.404700  0.722400  1.0  1.9429
  Al  Al172  1  0.829900  0.866200  0.280500  1.0  1.8016
  Al  Al173  1  0.855800  0.961600  0.311200  1.0  1.794
  Al  Al174  1  0.861600  0.904700  0.222400  1.0  1.9429
  Al  Al175  1  0.329900  0.366200  0.280500  1.0  1.8016
  Al  Al176  1  0.355800  0.461600  0.311200  1.0  1.794
  Al  Al177  1  0.361600  0.404700  0.222400  1.0  1.9429
  Al  Al178  1  0.329900  0.866200  0.780500  1.0  1.8016
  Al  Al179  1  0.355800  0.961600  0.811200  1.0  1.794
  Al  Al180  1  0.361600  0.904700  0.722400  1.0  1.9429
  Al  Al181  1  0.170100  0.633800  0.780500  1.0  1.8021
  Al  Al182  1  0.144200  0.538400  0.811200  1.0  1.7925
  Al  Al183  1  0.138400  0.595300  0.722400  1.0  1.9417
  Al  Al184  1  0.170100  0.133800  0.280500  1.0  1.8021
  Al  Al185  1  0.144200  0.038400  0.311200  1.0  1.7925
  Al  Al186  1  0.138400  0.095300  0.222400  1.0  1.9417
  Al  Al187  1  0.670100  0.633800  0.280500  1.0  1.8021
  Al  Al188  1  0.644200  0.538400  0.311200  1.0  1.7925
  Al  Al189  1  0.638400  0.595300  0.222400  1.0  1.9417
  Al  Al190  1  0.670100  0.133800  0.780500  1.0  1.8021
  Al  Al191  1  0.644200  0.038400  0.811200  1.0  1.7925
  Al  Al192  1  0.638400  0.095300  0.722400  1.0  1.9417
  Al  Al193  1  0.633800  0.780500  0.170100  1.0  1.8037
  Al  Al194  1  0.538400  0.811200  0.144200  1.0  1.7961
  Al  Al195  1  0.595300  0.722400  0.138400  1.0  1.9417
  Al  Al196  1  0.633800  0.280500  0.670100  1.0  1.8037
  Al  Al197  1  0.538400  0.311200  0.644200  1.0  1.7961
  Al  Al198  1  0.595300  0.222400  0.638400  1.0  1.9417
  Al  Al199  1  0.133800  0.780500  0.670100  1.0  1.8037
  Al  Al200  1  0.038400  0.811200  0.644200  1.0  1.7961
  Al  Al201  1  0.095300  0.722400  0.638400  1.0  1.9417
  Al  Al202  1  0.133800  0.280500  0.170100  1.0  1.8037
  Al  Al203  1  0.038400  0.311200  0.144200  1.0  1.7961
  Al  Al204  1  0.095300  0.222400  0.138400  1.0  1.9417
  Al  Al205  1  0.366200  0.780500  0.829900  1.0  1.8009
  Al  Al206  1  0.461600  0.811200  0.855800  1.0  1.7971
  Al  Al207  1  0.404700  0.722400  0.861600  1.0  1.944
  Al  Al208  1  0.366200  0.280500  0.329900  1.0  1.8009
  Al  Al209  1  0.461600  0.311200  0.355800  1.0  1.7971
  Al  Al210  1  0.404700  0.222400  0.361600  1.0  1.944
  Al  Al211  1  0.866200  0.780500  0.329900  1.0  1.8009
  Al  Al212  1  0.961600  0.811200  0.355800  1.0  1.7971
  Al  Al213  1  0.904700  0.722400  0.361600  1.0  1.944
  Al  Al214  1  0.866200  0.280500  0.829900  1.0  1.8009
  Al  Al215  1  0.961600  0.311200  0.855800  1.0  1.7971
  Al  Al216  1  0.904700  0.222400  0.861600  1.0  1.944
  Al  Al217  1  0.366200  0.219500  0.170100  1.0  1.8032
  Al  Al218  1  0.461600  0.188800  0.144200  1.0  1.7963
  Al  Al219  1  0.404700  0.277600  0.138400  1.0  1.9334
  Al  Al220  1  0.366200  0.719500  0.670100  1.0  1.8032
  Al  Al221  1  0.461600  0.688800  0.644200  1.0  1.7963
  Al  Al222  1  0.404700  0.777600  0.638400  1.0  1.9334
  Al  Al223  1  0.866200  0.219500  0.670100  1.0  1.8032
  Al  Al224  1  0.961600  0.188800  0.644200  1.0  1.7963
  Al  Al225  1  0.904700  0.277600  0.638400  1.0  1.9334
  Al  Al226  1  0.866200  0.719500  0.170100  1.0  1.8032
  Al  Al227  1  0.961600  0.688800  0.144200  1.0  1.7963
  Al  Al228  1  0.904700  0.777600  0.138400  1.0  1.9334
  Al  Al229  1  0.633800  0.219500  0.829900  1.0  1.8006
  Al  Al230  1  0.538400  0.188800  0.855800  1.0  1.7965
  Al  Al231  1  0.595300  0.277600  0.861600  1.0  1.935
  Al  Al232  1  0.633800  0.719500  0.329900  1.0  1.8006
  Al  Al233  1  0.538400  0.688800  0.355800  1.0  1.7965
  Al  Al234  1  0.595300  0.777600  0.361600  1.0  1.935
  Al  Al235  1  0.133800  0.219500  0.329900  1.0  1.8006
  Al  Al236  1  0.038400  0.188800  0.355800  1.0  1.7965
  Al  Al237  1  0.095300  0.277600  0.361600  1.0  1.935
  Al  Al238  1  0.133800  0.719500  0.829900  1.0  1.8006
  Al  Al239  1  0.038400  0.688800  0.855800  1.0  1.7965
  Al  Al240  1  0.095300  0.777600  0.861600  1.0  1.935
  Al  Al241  1  0.780500  0.829900  0.366200  1.0  1.8024
  Al  Al242  1  0.811200  0.855800  0.461600  1.0  1.7954
  Al  Al243  1  0.722400  0.861600  0.404700  1.0  1.9293
  Al  Al244  1  0.780500  0.329900  0.866200  1.0  1.8024
  Al  Al245  1  0.811200  0.355800  0.961600  1.0  1.7954
  Al  Al246  1  0.722400  0.361600  0.904700  1.0  1.9293
  Al  Al247  1  0.280500  0.829900  0.866200  1.0  1.8024
  Al  Al248  1  0.311200  0.855800  0.961600  1.0  1.7954
  Al  Al249  1  0.222400  0.861600  0.904700  1.0  1.9293
  Al  Al250  1  0.280500  0.329900  0.366200  1.0  1.8024
  Al  Al251  1  0.311200  0.355800  0.461600  1.0  1.7954
  Al  Al252  1  0.222400  0.361600  0.404700  1.0  1.9293
  Al  Al253  1  0.780500  0.170100  0.633800  1.0  1.7924
  Al  Al254  1  0.811200  0.144200  0.538400  1.0  1.7986
  Al  Al255  1  0.722400  0.138400  0.595300  1.0  1.9437
  Al  Al256  1  0.780500  0.670100  0.133800  1.0  1.7924
  Al  Al257  1  0.811200  0.644200  0.038400  1.0  1.7986
  Al  Al258  1  0.722400  0.638400  0.095300  1.0  1.9437
  Al  Al259  1  0.280500  0.170100  0.133800  1.0  1.7924
  Al  Al260  1  0.311200  0.144200  0.038400  1.0  1.7986
  Al  Al261  1  0.222400  0.138400  0.095300  1.0  1.9437
  Al  Al262  1  0.280500  0.670100  0.633800  1.0  1.7924
  Al  Al263  1  0.311200  0.644200  0.538400  1.0  1.7986
  Al  Al264  1  0.222400  0.638400  0.595300  1.0  1.9437
  Al  Al265  1  0.219500  0.829900  0.633800  1.0  1.803
  Al  Al266  1  0.188800  0.855800  0.538400  1.0  1.7978
  Al  Al267  1  0.277600  0.861600  0.595300  1.0  1.9284
  Al  Al268  1  0.219500  0.329900  0.133800  1.0  1.803
  Al  Al269  1  0.188800  0.355800  0.038400  1.0  1.7978
  Al  Al270  1  0.277600  0.361600  0.095300  1.0  1.9284
  Al  Al271  1  0.719500  0.829900  0.133800  1.0  1.803
  Al  Al272  1  0.688800  0.855800  0.038400  1.0  1.7978
  Al  Al273  1  0.777600  0.861600  0.095300  1.0  1.9284
  Al  Al274  1  0.719500  0.329900  0.633800  1.0  1.803
  Al  Al275  1  0.688800  0.355800  0.538400  1.0  1.7978
  Al  Al276  1  0.777600  0.361600  0.595300  1.0  1.9284
  Al  Al277  1  0.219500  0.170100  0.366200  1.0  1.7925
  Al  Al278  1  0.188800  0.144200  0.461600  1.0  1.7968
  Al  Al279  1  0.277600  0.138400  0.404700  1.0  1.9434
  Al  Al280  1  0.219500  0.670100  0.866200  1.0  1.7925
  Al  Al281  1  0.188800  0.644200  0.961600  1.0  1.7968
  Al  Al282  1  0.277600  0.638400  0.904700  1.0  1.9434
  Al  Al283  1  0.719500  0.170100  0.866200  1.0  1.7925
  Al  Al284  1  0.688800  0.144200  0.961600  1.0  1.7968
  Al  Al285  1  0.777600  0.138400  0.904700  1.0  1.9434
  Al  Al286  1  0.719500  0.670100  0.366200  1.0  1.7925
  Al  Al287  1  0.688800  0.644200  0.461600  1.0  1.7968
  Al  Al288  1  0.777600  0.638400  0.404700  1.0  1.9434
  Al  Al289  1  0.866200  0.670100  0.719500  1.0  1.7928
  Al  Al290  1  0.961600  0.644200  0.688800  1.0  1.7963
  Al  Al291  1  0.904700  0.638400  0.777600  1.0  1.9442
  Al  Al292  1  0.866200  0.170100  0.219500  1.0  1.7928
  Al  Al293  1  0.961600  0.144200  0.188800  1.0  1.7963
  Al  Al294  1  0.904700  0.138400  0.277600  1.0  1.9442
  Al  Al295  1  0.366200  0.670100  0.219500  1.0  1.7928
  Al  Al296  1  0.461600  0.644200  0.188800  1.0  1.7963
  Al  Al297  1  0.404700  0.638400  0.277600  1.0  1.9442
  Al  Al298  1  0.366200  0.170100  0.719500  1.0  1.7928
  Al  Al299  1  0.461600  0.144200  0.688800  1.0  1.7963
  Al  Al300  1  0.404700  0.138400  0.777600  1.0  1.9442
  Al  Al301  1  0.133800  0.329900  0.719500  1.0  1.803
  Al  Al302  1  0.038400  0.355800  0.688800  1.0  1.7946
  Al  Al303  1  0.095300  0.361600  0.777600  1.0  1.9296
  Al  Al304  1  0.133800  0.829900  0.219500  1.0  1.803
  Al  Al305  1  0.038400  0.855800  0.188800  1.0  1.7946
  Al  Al306  1  0.095300  0.861600  0.277600  1.0  1.9296
  Al  Al307  1  0.633800  0.329900  0.219500  1.0  1.803
  Al  Al308  1  0.538400  0.355800  0.188800  1.0  1.7946
  Al  Al309  1  0.595300  0.361600  0.277600  1.0  1.9296
  Al  Al310  1  0.633800  0.829900  0.719500  1.0  1.803
  Al  Al311  1  0.538400  0.855800  0.688800  1.0  1.7946
  Al  Al312  1  0.595300  0.861600  0.777600  1.0  1.9296
  Al  Al313  1  0.133800  0.670100  0.280500  1.0  1.7933
  Al  Al314  1  0.038400  0.644200  0.311200  1.0  1.795
  Al  Al315  1  0.095300  0.638400  0.222400  1.0  1.9412
  Al  Al316  1  0.133800  0.170100  0.780500  1.0  1.7933
  Al  Al317  1  0.038400  0.144200  0.811200  1.0  1.795
  Al  Al318  1  0.095300  0.138400  0.722400  1.0  1.9412
  Al  Al319  1  0.633800  0.670100  0.780500  1.0  1.7933
  Al  Al320  1  0.538400  0.644200  0.811200  1.0  1.795
  Al  Al321  1  0.595300  0.638400  0.722400  1.0  1.9412
  Al  Al322  1  0.633800  0.170100  0.280500  1.0  1.7933
  Al  Al323  1  0.538400  0.144200  0.311200  1.0  1.795
  Al  Al324  1  0.595300  0.138400  0.222400  1.0  1.9412
  Al  Al325  1  0.866200  0.329900  0.280500  1.0  1.8034
  Al  Al326  1  0.961600  0.355800  0.311200  1.0  1.7946
  Al  Al327  1  0.904700  0.361600  0.222400  1.0  1.9271
  Al  Al328  1  0.866200  0.829900  0.780500  1.0  1.8034
  Al  Al329  1  0.961600  0.855800  0.811200  1.0  1.7946
  Al  Al330  1  0.904700  0.861600  0.722400  1.0  1.9271
  Al  Al331  1  0.366200  0.329900  0.780500  1.0  1.8034
  Al  Al332  1  0.461600  0.355800  0.811200  1.0  1.7946
  Al  Al333  1  0.404700  0.361600  0.722400  1.0  1.9271
  Al  Al334  1  0.366200  0.829900  0.280500  1.0  1.8034
  Al  Al335  1  0.461600  0.855800  0.311200  1.0  1.7946
  Al  Al336  1  0.404700  0.861600  0.222400  1.0  1.9271
  Al  Al337  1  0.719500  0.866200  0.670100  1.0  1.803
  Al  Al338  1  0.688800  0.961600  0.644200  1.0  1.7985
  Al  Al339  1  0.777600  0.904700  0.638400  1.0  1.9414
  Al  Al340  1  0.719500  0.366200  0.170100  1.0  1.803
  Al  Al341  1  0.688800  0.461600  0.144200  1.0  1.7985
  Al  Al342  1  0.777600  0.404700  0.138400  1.0  1.9414
  Al  Al343  1  0.219500  0.866200  0.170100  1.0  1.803
  Al  Al344  1  0.188800  0.961600  0.144200  1.0  1.7985
  Al  Al345  1  0.277600  0.904700  0.138400  1.0  1.9414
  Al  Al346  1  0.219500  0.366200  0.670100  1.0  1.803
  Al  Al347  1  0.188800  0.461600  0.644200  1.0  1.7985
  Al  Al348  1  0.277600  0.404700  0.638400  1.0  1.9414
  Al  Al349  1  0.719500  0.133800  0.329900  1.0  1.8006
  Al  Al350  1  0.688800  0.038400  0.355800  1.0  1.7974
  Al  Al351  1  0.777600  0.095300  0.361600  1.0  1.9434
  Al  Al352  1  0.719500  0.633800  0.829900  1.0  1.8006
  Al  Al353  1  0.688800  0.538400  0.855800  1.0  1.7974
  Al  Al354  1  0.777600  0.595300  0.861600  1.0  1.9434
  Al  Al355  1  0.219500  0.133800  0.829900  1.0  1.8006
  Al  Al356  1  0.188800  0.038400  0.855800  1.0  1.7974
  Al  Al357  1  0.277600  0.095300  0.861600  1.0  1.9434
  Al  Al358  1  0.219500  0.633800  0.329900  1.0  1.8006
  Al  Al359  1  0.188800  0.538400  0.355800  1.0  1.7974
  Al  Al360  1  0.277600  0.595300  0.361600  1.0  1.9434
  Al  Al361  1  0.280500  0.133800  0.670100  1.0  1.8027
  Al  Al362  1  0.311200  0.038400  0.644200  1.0  1.7966
  Al  Al363  1  0.222400  0.095300  0.638400  1.0  1.9412
  Al  Al364  1  0.280500  0.633800  0.170100  1.0  1.8027
  Al  Al365  1  0.311200  0.538400  0.144200  1.0  1.7966
  Al  Al366  1  0.222400  0.595300  0.138400  1.0  1.9412
  Al  Al367  1  0.780500  0.133800  0.170100  1.0  1.8027
  Al  Al368  1  0.811200  0.038400  0.144200  1.0  1.7966
  Al  Al369  1  0.722400  0.095300  0.138400  1.0  1.9412
  Al  Al370  1  0.780500  0.633800  0.670100  1.0  1.8027
  Al  Al371  1  0.811200  0.538400  0.644200  1.0  1.7966
  Al  Al372  1  0.722400  0.595300  0.638400  1.0  1.9412
  Al  Al373  1  0.280500  0.866200  0.329900  1.0  1.8005
  Al  Al374  1  0.311200  0.961600  0.355800  1.0  1.7993
  Al  Al375  1  0.222400  0.904700  0.361600  1.0  1.9441
  Al  Al376  1  0.280500  0.366200  0.829900  1.0  1.8005
  Al  Al377  1  0.311200  0.461600  0.855800  1.0  1.7993
  Al  Al378  1  0.222400  0.404700  0.861600  1.0  1.9441
  Al  Al379  1  0.780500  0.866200  0.829900  1.0  1.8005
  Al  Al380  1  0.811200  0.961600  0.855800  1.0  1.7993
  Al  Al381  1  0.722400  0.904700  0.861600  1.0  1.9441
  Al  Al382  1  0.780500  0.366200  0.329900  1.0  1.8005
  Al  Al383  1  0.811200  0.461600  0.355800  1.0  1.7993
  Al  Al384  1  0.722400  0.404700  0.361600  1.0  1.9441
  Al  Al385  1  0.670100  0.719500  0.866200  1.0  1.8011
  Al  Al386  1  0.644200  0.688800  0.961600  1.0  1.793
  Al  Al387  1  0.638400  0.777600  0.904700  1.0  1.9354
  Al  Al388  1  0.670100  0.219500  0.366200  1.0  1.8011
  Al  Al389  1  0.644200  0.188800  0.461600  1.0  1.793
  Al  Al390  1  0.638400  0.277600  0.404700  1.0  1.9354
  Al  Al391  1  0.170100  0.719500  0.366200  1.0  1.8011
  Al  Al392  1  0.144200  0.688800  0.461600  1.0  1.793
  Al  Al393  1  0.138400  0.777600  0.404700  1.0  1.9354
  Al  Al394  1  0.170100  0.219500  0.866200  1.0  1.8011
  Al  Al395  1  0.144200  0.188800  0.961600  1.0  1.793
  Al  Al396  1  0.138400  0.277600  0.904700  1.0  1.9354
  Al  Al397  1  0.329900  0.719500  0.133800  1.0  1.8013
  Al  Al398  1  0.355800  0.688800  0.038400  1.0  1.7945
  Al  Al399  1  0.361600  0.777600  0.095300  1.0  1.9364
  Al  Al400  1  0.329900  0.219500  0.633800  1.0  1.8013
  Al  Al401  1  0.355800  0.188800  0.538400  1.0  1.7945
  Al  Al402  1  0.361600  0.277600  0.595300  1.0  1.9364
  Al  Al403  1  0.829900  0.719500  0.633800  1.0  1.8013
  Al  Al404  1  0.855800  0.688800  0.538400  1.0  1.7945
  Al  Al405  1  0.861600  0.777600  0.595300  1.0  1.9364
  Al  Al406  1  0.829900  0.219500  0.133800  1.0  1.8013
  Al  Al407  1  0.855800  0.188800  0.038400  1.0  1.7945
  Al  Al408  1  0.861600  0.277600  0.095300  1.0  1.9364
  Al  Al409  1  0.670100  0.280500  0.133800  1.0  1.8019
  Al  Al410  1  0.644200  0.311200  0.038400  1.0  1.7949
  Al  Al411  1  0.638400  0.222400  0.095300  1.0  1.9447
  Al  Al412  1  0.670100  0.780500  0.633800  1.0  1.8019
  Al  Al413  1  0.644200  0.811200  0.538400  1.0  1.7949
  Al  Al414  1  0.638400  0.722400  0.595300  1.0  1.9447
  Al  Al415  1  0.170100  0.280500  0.633800  1.0  1.8019
  Al  Al416  1  0.144200  0.311200  0.538400  1.0  1.7949
  Al  Al417  1  0.138400  0.222400  0.595300  1.0  1.9447
  Al  Al418  1  0.170100  0.780500  0.133800  1.0  1.8019
  Al  Al419  1  0.144200  0.811200  0.038400  1.0  1.7949
  Al  Al420  1  0.138400  0.722400  0.095300  1.0  1.9447
  Al  Al421  1  0.329900  0.280500  0.866200  1.0  1.8013
  Al  Al422  1  0.355800  0.311200  0.961600  1.0  1.793
  Al  Al423  1  0.361600  0.222400  0.904700  1.0  1.9453
  Al  Al424  1  0.329900  0.780500  0.366200  1.0  1.8013
  Al  Al425  1  0.355800  0.811200  0.461600  1.0  1.793
  Al  Al426  1  0.361600  0.722400  0.404700  1.0  1.9453
  Al  Al427  1  0.829900  0.280500  0.366200  1.0  1.8013
  Al  Al428  1  0.855800  0.311200  0.461600  1.0  1.793
  Al  Al429  1  0.861600  0.222400  0.404700  1.0  1.9453
  Al  Al430  1  0.829900  0.780500  0.866200  1.0  1.8013
  Al  Al431  1  0.855800  0.811200  0.961600  1.0  1.793
  Al  Al432  1  0.861600  0.722400  0.904700  1.0  1.9453
  Al  Al433  1  0.170100  0.366200  0.780500  1.0  1.802
  Al  Al434  1  0.144200  0.461600  0.811200  1.0  1.794
  Al  Al435  1  0.138400  0.404700  0.722400  1.0  1.9419
  Al  Al436  1  0.170100  0.866200  0.280500  1.0  1.802
  Al  Al437  1  0.144200  0.961600  0.311200  1.0  1.794
  Al  Al438  1  0.138400  0.904700  0.222400  1.0  1.9419
  Al  Al439  1  0.670100  0.366200  0.280500  1.0  1.802
  Al  Al440  1  0.644200  0.461600  0.311200  1.0  1.794
  Al  Al441  1  0.638400  0.404700  0.222400  1.0  1.9419
  Al  Al442  1  0.670100  0.866200  0.780500  1.0  1.802
  Al  Al443  1  0.644200  0.961600  0.811200  1.0  1.794
  Al  Al444  1  0.638400  0.904700  0.722400  1.0  1.9419
  Al  Al445  1  0.829900  0.633800  0.780500  1.0  1.8018
  Al  Al446  1  0.855800  0.538400  0.811200  1.0  1.7921
  Al  Al447  1  0.861600  0.595300  0.722400  1.0  1.9424
  Al  Al448  1  0.829900  0.133800  0.280500  1.0  1.8018
  Al  Al449  1  0.855800  0.038400  0.311200  1.0  1.7921
  Al  Al450  1  0.861600  0.095300  0.222400  1.0  1.9424
  Al  Al451  1  0.329900  0.633800  0.280500  1.0  1.8018
  Al  Al452  1  0.355800  0.538400  0.311200  1.0  1.7921
  Al  Al453  1  0.361600  0.595300  0.222400  1.0  1.9424
  Al  Al454  1  0.329900  0.133800  0.780500  1.0  1.8018
  Al  Al455  1  0.355800  0.038400  0.811200  1.0  1.7921
  Al  Al456  1  0.361600  0.095300  0.722400  1.0  1.9424
  Al  Al457  1  0.170100  0.633800  0.219500  1.0  1.8012
  Al  Al458  1  0.144200  0.538400  0.188800  1.0  1.7932
  Al  Al459  1  0.138400  0.595300  0.277600  1.0  1.9445
  Al  Al460  1  0.170100  0.133800  0.719500  1.0  1.8012
  Al  Al461  1  0.144200  0.038400  0.688800  1.0  1.7932
  Al  Al462  1  0.138400  0.095300  0.777600  1.0  1.9445
  Al  Al463  1  0.670100  0.633800  0.719500  1.0  1.8012
  Al  Al464  1  0.644200  0.538400  0.688800  1.0  1.7932
  Al  Al465  1  0.638400  0.595300  0.777600  1.0  1.9445
  Al  Al466  1  0.670100  0.133800  0.219500  1.0  1.8012
  Al  Al467  1  0.644200  0.038400  0.188800  1.0  1.7932
  Al  Al468  1  0.638400  0.095300  0.277600  1.0  1.9445
  Al  Al469  1  0.829900  0.366200  0.219500  1.0  1.8011
  Al  Al470  1  0.855800  0.461600  0.188800  1.0  1.7948
  Al  Al471  1  0.861600  0.404700  0.277600  1.0  1.9462
  Al  Al472  1  0.829900  0.866200  0.719500  1.0  1.8011
  Al  Al473  1  0.855800  0.961600  0.688800  1.0  1.7948
  Al  Al474  1  0.861600  0.904700  0.777600  1.0  1.9462
  Al  Al475  1  0.329900  0.366200  0.719500  1.0  1.8011
  Al  Al476  1  0.355800  0.461600  0.688800  1.0  1.7948
  Al  Al477  1  0.361600  0.404700  0.777600  1.0  1.9462
  Al  Al478  1  0.329900  0.866200  0.219500  1.0  1.8011
  Al  Al479  1  0.355800  0.961600  0.188800  1.0  1.7948
  Al  Al480  1  0.361600  0.904700  0.277600  1.0  1.9462
  Al  Al481  1  0.366200  0.219500  0.829900  1.0  1.8005
  Al  Al482  1  0.461600  0.188800  0.855800  1.0  1.7969
  Al  Al483  1  0.404700  0.277600  0.861600  1.0  1.9349
  Al  Al484  1  0.366200  0.719500  0.329900  1.0  1.8005
  Al  Al485  1  0.461600  0.688800  0.355800  1.0  1.7969
  Al  Al486  1  0.404700  0.777600  0.361600  1.0  1.9349
  Al  Al487  1  0.866200  0.219500  0.329900  1.0  1.8005
  Al  Al488  1  0.961600  0.188800  0.355800  1.0  1.7969
  Al  Al489  1  0.904700  0.277600  0.361600  1.0  1.9349
  Al  Al490  1  0.866200  0.719500  0.829900  1.0  1.8005
  Al  Al491  1  0.961600  0.688800  0.855800  1.0  1.7969
  Al  Al492  1  0.904700  0.777600  0.861600  1.0  1.9349
  Al  Al493  1  0.633800  0.219500  0.170100  1.0  1.8034
  Al  Al494  1  0.538400  0.188800  0.144200  1.0  1.7963
  Al  Al495  1  0.595300  0.277600  0.138400  1.0  1.9338
  Al  Al496  1  0.633800  0.719500  0.670100  1.0  1.8034
  Al  Al497  1  0.538400  0.688800  0.644200  1.0  1.7963
  Al  Al498  1  0.595300  0.777600  0.638400  1.0  1.9338
  Al  Al499  1  0.133800  0.219500  0.670100  1.0  1.8034
  Al  Al500  1  0.038400  0.188800  0.644200  1.0  1.7963
  Al  Al501  1  0.095300  0.277600  0.638400  1.0  1.9338
  Al  Al502  1  0.133800  0.719500  0.170100  1.0  1.8034
  Al  Al503  1  0.038400  0.688800  0.144200  1.0  1.7963
  Al  Al504  1  0.095300  0.777600  0.138400  1.0  1.9338
  Al  Al505  1  0.633800  0.780500  0.829900  1.0  1.8011
  Al  Al506  1  0.538400  0.811200  0.855800  1.0  1.7965
  Al  Al507  1  0.595300  0.722400  0.861600  1.0  1.9439
  Al  Al508  1  0.633800  0.280500  0.329900  1.0  1.8011
  Al  Al509  1  0.538400  0.311200  0.355800  1.0  1.7965
  Al  Al510  1  0.595300  0.222400  0.361600  1.0  1.9439
  Al  Al511  1  0.133800  0.780500  0.329900  1.0  1.8011
  Al  Al512  1  0.038400  0.811200  0.355800  1.0  1.7965
  Al  Al513  1  0.095300  0.722400  0.361600  1.0  1.9439
  Al  Al514  1  0.133800  0.280500  0.829900  1.0  1.8011
  Al  Al515  1  0.038400  0.311200  0.855800  1.0  1.7965
  Al  Al516  1  0.095300  0.222400  0.861600  1.0  1.9439
  Al  Al517  1  0.366200  0.780500  0.170100  1.0  1.8034
  Al  Al518  1  0.461600  0.811200  0.144200  1.0  1.7963
  Al  Al519  1  0.404700  0.722400  0.138400  1.0  1.9416
  Al  Al520  1  0.366200  0.280500  0.670100  1.0  1.8034
  Al  Al521  1  0.461600  0.311200  0.644200  1.0  1.7963
  Al  Al522  1  0.404700  0.222400  0.638400  1.0  1.9416
  Al  Al523  1  0.866200  0.780500  0.670100  1.0  1.8034
  Al  Al524  1  0.961600  0.811200  0.644200  1.0  1.7963
  Al  Al525  1  0.904700  0.722400  0.638400  1.0  1.9416
  Al  Al526  1  0.866200  0.280500  0.170100  1.0  1.8034
  Al  Al527  1  0.961600  0.311200  0.144200  1.0  1.7963
  Al  Al528  1  0.904700  0.222400  0.138400  1.0  1.9416
  Al  Al529  1  0.219500  0.170100  0.633800  1.0  1.7928
  Al  Al530  1  0.188800  0.144200  0.538400  1.0  1.7986
  Al  Al531  1  0.277600  0.138400  0.595300  1.0  1.9434
  Al  Al532  1  0.219500  0.670100  0.133800  1.0  1.7928
  Al  Al533  1  0.188800  0.644200  0.038400  1.0  1.7986
  Al  Al534  1  0.277600  0.638400  0.095300  1.0  1.9434
  Al  Al535  1  0.719500  0.170100  0.133800  1.0  1.7928
  Al  Al536  1  0.688800  0.144200  0.038400  1.0  1.7986
  Al  Al537  1  0.777600  0.138400  0.095300  1.0  1.9434
  Al  Al538  1  0.719500  0.670100  0.633800  1.0  1.7928
  Al  Al539  1  0.688800  0.644200  0.538400  1.0  1.7986
  Al  Al540  1  0.777600  0.638400  0.595300  1.0  1.9434
  Al  Al541  1  0.219500  0.829900  0.366200  1.0  1.8026
  Al  Al542  1  0.188800  0.855800  0.461600  1.0  1.7956
  Al  Al543  1  0.277600  0.861600  0.404700  1.0  1.9285
  Al  Al544  1  0.219500  0.329900  0.866200  1.0  1.8026
  Al  Al545  1  0.188800  0.355800  0.961600  1.0  1.7956
  Al  Al546  1  0.277600  0.361600  0.904700  1.0  1.9285
  Al  Al547  1  0.719500  0.829900  0.866200  1.0  1.8026
  Al  Al548  1  0.688800  0.855800  0.961600  1.0  1.7956
  Al  Al549  1  0.777600  0.861600  0.904700  1.0  1.9285
  Al  Al550  1  0.719500  0.329900  0.366200  1.0  1.8026
  Al  Al551  1  0.688800  0.355800  0.461600  1.0  1.7956
  Al  Al552  1  0.777600  0.361600  0.404700  1.0  1.9285
  Al  Al553  1  0.780500  0.170100  0.366200  1.0  1.792
  Al  Al554  1  0.811200  0.144200  0.461600  1.0  1.7967
  Al  Al555  1  0.722400  0.138400  0.404700  1.0  1.944
  Al  Al556  1  0.780500  0.670100  0.866200  1.0  1.792
  Al  Al557  1  0.811200  0.644200  0.961600  1.0  1.7967
  Al  Al558  1  0.722400  0.638400  0.904700  1.0  1.944
  Al  Al559  1  0.280500  0.170100  0.866200  1.0  1.792
  Al  Al560  1  0.311200  0.144200  0.961600  1.0  1.7967
  Al  Al561  1  0.222400  0.138400  0.904700  1.0  1.944
  Al  Al562  1  0.280500  0.670100  0.366200  1.0  1.792
  Al  Al563  1  0.311200  0.644200  0.461600  1.0  1.7967
  Al  Al564  1  0.222400  0.638400  0.404700  1.0  1.944
  Al  Al565  1  0.780500  0.829900  0.633800  1.0  1.8029
  Al  Al566  1  0.811200  0.855800  0.538400  1.0  1.7976
  Al  Al567  1  0.722400  0.861600  0.595300  1.0  1.9289
  Al  Al568  1  0.780500  0.329900  0.133800  1.0  1.8029
  Al  Al569  1  0.811200  0.355800  0.038400  1.0  1.7976
  Al  Al570  1  0.722400  0.361600  0.095300  1.0  1.9289
  Al  Al571  1  0.280500  0.829900  0.133800  1.0  1.8029
  Al  Al572  1  0.311200  0.855800  0.038400  1.0  1.7976
  Al  Al573  1  0.222400  0.861600  0.095300  1.0  1.9289
  Al  Al574  1  0.280500  0.329900  0.633800  1.0  1.8029
  Al  Al575  1  0.311200  0.355800  0.538400  1.0  1.7976
  Al  Al576  1  0.222400  0.361600  0.595300  1.0  1.9289
  Al  Al577  1  0.000000  0.323800  0.216700  1.0  1.874
  Al  Al578  1  0.000000  0.379600  0.158600  1.0  1.3133
  Al  Al579  1  0.000000  0.823800  0.716700  1.0  1.874
  Al  Al580  1  0.000000  0.879600  0.658600  1.0  1.3133
  Al  Al581  1  0.500000  0.323800  0.716700  1.0  1.874
  Al  Al582  1  0.500000  0.379600  0.658600  1.0  1.3133
  Al  Al583  1  0.500000  0.823800  0.216700  1.0  1.874
  Al  Al584  1  0.500000  0.879600  0.158600  1.0  1.3133
  Al  Al585  1  0.000000  0.676200  0.216700  1.0  1.8738
  Al  Al586  1  0.000000  0.620400  0.158600  1.0  1.3165
  Al  Al587  1  0.000000  0.176200  0.716700  1.0  1.8738
  Al  Al588  1  0.000000  0.120400  0.658600  1.0  1.3165
  Al  Al589  1  0.500000  0.676200  0.716700  1.0  1.8738
  Al  Al590  1  0.500000  0.620400  0.658600  1.0  1.3165
  Al  Al591  1  0.500000  0.176200  0.216700  1.0  1.8738
  Al  Al592  1  0.500000  0.120400  0.158600  1.0  1.3165
  Al  Al593  1  0.000000  0.323800  0.783300  1.0  1.8717
  Al  Al594  1  0.000000  0.379600  0.841400  1.0  1.3131
  Al  Al595  1  0.000000  0.823800  0.283300  1.0  1.8717
  Al  Al596  1  0.000000  0.879600  0.341400  1.0  1.3131
  Al  Al597  1  0.500000  0.323800  0.283300  1.0  1.8717
  Al  Al598  1  0.500000  0.379600  0.341400  1.0  1.3131
  Al  Al599  1  0.500000  0.823800  0.783300  1.0  1.8717
  Al  Al600  1  0.500000  0.879600  0.841400  1.0  1.3131
  Al  Al601  1  0.000000  0.676200  0.783300  1.0  1.8715
  Al  Al602  1  0.000000  0.620400  0.841400  1.0  1.3162
  Al  Al603  1  0.000000  0.176200  0.283300  1.0  1.8715
  Al  Al604  1  0.000000  0.120400  0.341400  1.0  1.3162
  Al  Al605  1  0.500000  0.676200  0.283300  1.0  1.8715
  Al  Al606  1  0.500000  0.620400  0.341400  1.0  1.3162
  Al  Al607  1  0.500000  0.176200  0.783300  1.0  1.8715
  Al  Al608  1  0.500000  0.120400  0.841400  1.0  1.3162
  Al  Al609  1  0.216700  0.000000  0.323800  1.0  1.8716
  Al  Al610  1  0.158600  0.000000  0.379600  1.0  1.3134
  Al  Al611  1  0.216700  0.500000  0.823800  1.0  1.8716
  Al  Al612  1  0.158600  0.500000  0.879600  1.0  1.3134
  Al  Al613  1  0.716700  0.000000  0.823800  1.0  1.8716
  Al  Al614  1  0.658600  0.000000  0.879600  1.0  1.3134
  Al  Al615  1  0.716700  0.500000  0.323800  1.0  1.8716
  Al  Al616  1  0.658600  0.500000  0.379600  1.0  1.3134
  Al  Al617  1  0.216700  0.000000  0.676200  1.0  1.8722
  Al  Al618  1  0.158600  0.000000  0.620400  1.0  1.3184
  Al  Al619  1  0.216700  0.500000  0.176200  1.0  1.8722
  Al  Al620  1  0.158600  0.500000  0.120400  1.0  1.3184
  Al  Al621  1  0.716700  0.000000  0.176200  1.0  1.8722
  Al  Al622  1  0.658600  0.000000  0.120400  1.0  1.3184
  Al  Al623  1  0.716700  0.500000  0.676200  1.0  1.8722
  Al  Al624  1  0.658600  0.500000  0.620400  1.0  1.3184
  Al  Al625  1  0.783300  0.000000  0.323800  1.0  1.8632
  Al  Al626  1  0.841400  0.000000  0.379600  1.0  1.314
  Al  Al627  1  0.783300  0.500000  0.823800  1.0  1.8632
  Al  Al628  1  0.841400  0.500000  0.879600  1.0  1.314
  Al  Al629  1  0.283300  0.000000  0.823800  1.0  1.8632
  Al  Al630  1  0.341400  0.000000  0.879600  1.0  1.314
  Al  Al631  1  0.283300  0.500000  0.323800  1.0  1.8632
  Al  Al632  1  0.341400  0.500000  0.379600  1.0  1.314
  Al  Al633  1  0.783300  0.000000  0.676200  1.0  1.8643
  Al  Al634  1  0.841400  0.000000  0.620400  1.0  1.3186
  Al  Al635  1  0.783300  0.500000  0.176200  1.0  1.8643
  Al  Al636  1  0.841400  0.500000  0.120400  1.0  1.3186
  Al  Al637  1  0.283300  0.000000  0.176200  1.0  1.8643
  Al  Al638  1  0.341400  0.000000  0.120400  1.0  1.3186
  Al  Al639  1  0.283300  0.500000  0.676200  1.0  1.8643
  Al  Al640  1  0.341400  0.500000  0.620400  1.0  1.3186
  Al  Al641  1  0.323800  0.216700  0.000000  1.0  1.8552
  Al  Al642  1  0.379600  0.158600  0.000000  1.0  1.3074
  Al  Al643  1  0.323800  0.716700  0.500000  1.0  1.8552
  Al  Al644  1  0.379600  0.658600  0.500000  1.0  1.3074
  Al  Al645  1  0.823800  0.216700  0.500000  1.0  1.8552
  Al  Al646  1  0.879600  0.158600  0.500000  1.0  1.3074
  Al  Al647  1  0.823800  0.716700  0.000000  1.0  1.8552
  Al  Al648  1  0.879600  0.658600  0.000000  1.0  1.3074
  Al  Al649  1  0.676200  0.216700  0.000000  1.0  1.8556
  Al  Al650  1  0.620400  0.158600  0.000000  1.0  1.3072
  Al  Al651  1  0.676200  0.716700  0.500000  1.0  1.8556
  Al  Al652  1  0.620400  0.658600  0.500000  1.0  1.3072
  Al  Al653  1  0.176200  0.216700  0.500000  1.0  1.8556
  Al  Al654  1  0.120400  0.158600  0.500000  1.0  1.3072
  Al  Al655  1  0.176200  0.716700  0.000000  1.0  1.8556
  Al  Al656  1  0.120400  0.658600  0.000000  1.0  1.3072
  Al  Al657  1  0.323800  0.783300  0.000000  1.0  1.8726
  Al  Al658  1  0.379600  0.841400  0.000000  1.0  1.3068
  Al  Al659  1  0.323800  0.283300  0.500000  1.0  1.8726
  Al  Al660  1  0.379600  0.341400  0.500000  1.0  1.3068
  Al  Al661  1  0.823800  0.783300  0.500000  1.0  1.8726
  Al  Al662  1  0.879600  0.841400  0.500000  1.0  1.3068
  Al  Al663  1  0.823800  0.283300  0.000000  1.0  1.8726
  Al  Al664  1  0.879600  0.341400  0.000000  1.0  1.3068
  Al  Al665  1  0.676200  0.783300  0.000000  1.0  1.8728
  Al  Al666  1  0.620400  0.841400  0.000000  1.0  1.3069
  Al  Al667  1  0.676200  0.283300  0.500000  1.0  1.8728
  Al  Al668  1  0.620400  0.341400  0.500000  1.0  1.3069
  Al  Al669  1  0.176200  0.783300  0.500000  1.0  1.8728
  Al  Al670  1  0.120400  0.841400  0.500000  1.0  1.3069
  Al  Al671  1  0.176200  0.283300  0.000000  1.0  1.8728
  Al  Al672  1  0.120400  0.341400  0.000000  1.0  1.3069
  Al  Al673  1  0.823800  0.500000  0.283300  1.0  1.8699
  Al  Al674  1  0.879600  0.500000  0.341400  1.0  1.3075
  Al  Al675  1  0.823800  0.000000  0.783300  1.0  1.8699
  Al  Al676  1  0.879600  0.000000  0.841400  1.0  1.3075
  Al  Al677  1  0.323800  0.500000  0.783300  1.0  1.8699
  Al  Al678  1  0.379600  0.500000  0.841400  1.0  1.3075
  Al  Al679  1  0.323800  0.000000  0.283300  1.0  1.8699
  Al  Al680  1  0.379600  0.000000  0.341400  1.0  1.3075
  Al  Al681  1  0.176200  0.500000  0.283300  1.0  1.8704
  Al  Al682  1  0.120400  0.500000  0.341400  1.0  1.3069
  Al  Al683  1  0.176200  0.000000  0.783300  1.0  1.8704
  Al  Al684  1  0.120400  0.000000  0.841400  1.0  1.3069
  Al  Al685  1  0.676200  0.500000  0.783300  1.0  1.8704
  Al  Al686  1  0.620400  0.500000  0.841400  1.0  1.3069
  Al  Al687  1  0.676200  0.000000  0.283300  1.0  1.8704
  Al  Al688  1  0.620400  0.000000  0.341400  1.0  1.3069
  Al  Al689  1  0.823800  0.500000  0.716700  1.0  1.8723
  Al  Al690  1  0.879600  0.500000  0.658600  1.0  1.307
  Al  Al691  1  0.823800  0.000000  0.216700  1.0  1.8723
  Al  Al692  1  0.879600  0.000000  0.158600  1.0  1.307
  Al  Al693  1  0.323800  0.500000  0.216700  1.0  1.8723
  Al  Al694  1  0.379600  0.500000  0.158600  1.0  1.307
  Al  Al695  1  0.323800  0.000000  0.716700  1.0  1.8723
  Al  Al696  1  0.379600  0.000000  0.658600  1.0  1.307
  Al  Al697  1  0.176200  0.500000  0.716700  1.0  1.8728
  Al  Al698  1  0.120400  0.500000  0.658600  1.0  1.3071
  Al  Al699  1  0.176200  0.000000  0.216700  1.0  1.8728
  Al  Al700  1  0.120400  0.000000  0.158600  1.0  1.3071
  Al  Al701  1  0.676200  0.500000  0.216700  1.0  1.8728
  Al  Al702  1  0.620400  0.500000  0.158600  1.0  1.3071
  Al  Al703  1  0.676200  0.000000  0.716700  1.0  1.8728
  Al  Al704  1  0.620400  0.000000  0.658600  1.0  1.3071
  Al  Al705  1  0.500000  0.716700  0.176200  1.0  1.8563
  Al  Al706  1  0.500000  0.658600  0.120400  1.0  1.3195
  Al  Al707  1  0.500000  0.216700  0.676200  1.0  1.8563
  Al  Al708  1  0.500000  0.158600  0.620400  1.0  1.3195
  Al  Al709  1  0.000000  0.716700  0.676200  1.0  1.8563
  Al  Al710  1  0.000000  0.658600  0.620400  1.0  1.3195
  Al  Al711  1  0.000000  0.216700  0.176200  1.0  1.8563
  Al  Al712  1  0.000000  0.158600  0.120400  1.0  1.3195
  Al  Al713  1  0.500000  0.716700  0.823800  1.0  1.8553
  Al  Al714  1  0.500000  0.658600  0.879600  1.0  1.3144
  Al  Al715  1  0.500000  0.216700  0.323800  1.0  1.8553
  Al  Al716  1  0.500000  0.158600  0.379600  1.0  1.3144
  Al  Al717  1  0.000000  0.716700  0.323800  1.0  1.8553
  Al  Al718  1  0.000000  0.658600  0.379600  1.0  1.3144
  Al  Al719  1  0.000000  0.216700  0.823800  1.0  1.8553
  Al  Al720  1  0.000000  0.158600  0.879600  1.0  1.3144
  Al  Al721  1  0.500000  0.283300  0.176200  1.0  1.8739
  Al  Al722  1  0.500000  0.341400  0.120400  1.0  1.3189
  Al  Al723  1  0.500000  0.783300  0.676200  1.0  1.8739
  Al  Al724  1  0.500000  0.841400  0.620400  1.0  1.3189
  Al  Al725  1  0.000000  0.283300  0.676200  1.0  1.8739
  Al  Al726  1  0.000000  0.341400  0.620400  1.0  1.3189
  Al  Al727  1  0.000000  0.783300  0.176200  1.0  1.8739
  Al  Al728  1  0.000000  0.841400  0.120400  1.0  1.3189
  Al  Al729  1  0.500000  0.283300  0.823800  1.0  1.8728
  Al  Al730  1  0.500000  0.341400  0.879600  1.0  1.3144
  Al  Al731  1  0.500000  0.783300  0.323800  1.0  1.8728
  Al  Al732  1  0.500000  0.841400  0.379600  1.0  1.3144
  Al  Al733  1  0.000000  0.283300  0.323800  1.0  1.8728
  Al  Al734  1  0.000000  0.341400  0.379600  1.0  1.3144
  Al  Al735  1  0.000000  0.783300  0.823800  1.0  1.8728
  Al  Al736  1  0.000000  0.841400  0.879600  1.0  1.3144
  Al  Al737  1  0.716700  0.823800  0.500000  1.0  1.8726
  Al  Al738  1  0.658600  0.879600  0.500000  1.0  1.3128
  Al  Al739  1  0.716700  0.323800  0.000000  1.0  1.8726
  Al  Al740  1  0.658600  0.379600  0.000000  1.0  1.3128
  Al  Al741  1  0.216700  0.823800  0.000000  1.0  1.8726
  Al  Al742  1  0.158600  0.879600  0.000000  1.0  1.3128
  Al  Al743  1  0.216700  0.323800  0.500000  1.0  1.8726
  Al  Al744  1  0.158600  0.379600  0.500000  1.0  1.3128
  Al  Al745  1  0.716700  0.176200  0.500000  1.0  1.8729
  Al  Al746  1  0.658600  0.120400  0.500000  1.0  1.3155
  Al  Al747  1  0.716700  0.676200  0.000000  1.0  1.8729
  Al  Al748  1  0.658600  0.620400  0.000000  1.0  1.3155
  Al  Al749  1  0.216700  0.176200  0.000000  1.0  1.8729
  Al  Al750  1  0.158600  0.120400  0.000000  1.0  1.3155
  Al  Al751  1  0.216700  0.676200  0.500000  1.0  1.8729
  Al  Al752  1  0.158600  0.620400  0.500000  1.0  1.3155
  Al  Al753  1  0.283300  0.823800  0.500000  1.0  1.8647
  Al  Al754  1  0.341400  0.879600  0.500000  1.0  1.313
  Al  Al755  1  0.283300  0.323800  0.000000  1.0  1.8647
  Al  Al756  1  0.341400  0.379600  0.000000  1.0  1.313
  Al  Al757  1  0.783300  0.823800  0.000000  1.0  1.8647
  Al  Al758  1  0.841400  0.879600  0.000000  1.0  1.313
  Al  Al759  1  0.783300  0.323800  0.500000  1.0  1.8647
  Al  Al760  1  0.841400  0.379600  0.500000  1.0  1.313
  Al  Al761  1  0.283300  0.176200  0.500000  1.0  1.8645
  Al  Al762  1  0.341400  0.120400  0.500000  1.0  1.315
  Al  Al763  1  0.283300  0.676200  0.000000  1.0  1.8645
  Al  Al764  1  0.341400  0.620400  0.000000  1.0  1.315
  Al  Al765  1  0.783300  0.176200  0.000000  1.0  1.8645
  Al  Al766  1  0.841400  0.120400  0.000000  1.0  1.315
  Al  Al767  1  0.783300  0.676200  0.500000  1.0  1.8645
  Al  Al768  1  0.841400  0.620400  0.500000  1.0  1.315
  P  P769  1  0.088800  0.370400  0.281100  1.0  1.6555
  P  P770  1  0.134700  0.316200  0.220800  1.0  1.496
  P  P771  1  0.046000  0.351700  0.188300  1.0  1.5988
  P  P772  1  0.088800  0.870400  0.781100  1.0  1.6555
  P  P773  1  0.134700  0.816200  0.720800  1.0  1.496
  P  P774  1  0.046000  0.851700  0.688300  1.0  1.5988
  P  P775  1  0.588800  0.370400  0.781100  1.0  1.6555
  P  P776  1  0.634700  0.316200  0.720800  1.0  1.496
  P  P777  1  0.546000  0.351700  0.688300  1.0  1.5988
  P  P778  1  0.588800  0.870400  0.281100  1.0  1.6555
  P  P779  1  0.634700  0.816200  0.220800  1.0  1.496
  P  P780  1  0.546000  0.851700  0.188300  1.0  1.5988
  P  P781  1  0.911200  0.629600  0.281100  1.0  1.6581
  P  P782  1  0.865300  0.683800  0.220800  1.0  1.4951
  P  P783  1  0.954000  0.648300  0.188300  1.0  1.5978
  P  P784  1  0.911200  0.129600  0.781100  1.0  1.6581
  P  P785  1  0.865300  0.183800  0.720800  1.0  1.4951
  P  P786  1  0.954000  0.148300  0.688300  1.0  1.5978
  P  P787  1  0.411200  0.629600  0.781100  1.0  1.6581
  P  P788  1  0.365300  0.683800  0.720800  1.0  1.4951
  P  P789  1  0.454000  0.648300  0.688300  1.0  1.5978
  P  P790  1  0.411200  0.129600  0.281100  1.0  1.6581
  P  P791  1  0.365300  0.183800  0.220800  1.0  1.4951
  P  P792  1  0.454000  0.148300  0.188300  1.0  1.5978
  P  P793  1  0.911200  0.370400  0.718900  1.0  1.6581
  P  P794  1  0.865300  0.316200  0.779200  1.0  1.4959
  P  P795  1  0.954000  0.351700  0.811700  1.0  1.5984
  P  P796  1  0.911200  0.870400  0.218900  1.0  1.6581
  P  P797  1  0.865300  0.816200  0.279200  1.0  1.4959
  P  P798  1  0.954000  0.851700  0.311700  1.0  1.5984
  P  P799  1  0.411200  0.370400  0.218900  1.0  1.6581
  P  P800  1  0.365300  0.316200  0.279200  1.0  1.4959
  P  P801  1  0.454000  0.351700  0.311700  1.0  1.5984
  P  P802  1  0.411200  0.870400  0.718900  1.0  1.6581
  P  P803  1  0.365300  0.816200  0.779200  1.0  1.4959
  P  P804  1  0.454000  0.851700  0.811700  1.0  1.5984
  P  P805  1  0.088800  0.629600  0.718900  1.0  1.6556
  P  P806  1  0.134700  0.683800  0.779200  1.0  1.4978
  P  P807  1  0.046000  0.648300  0.811700  1.0  1.5982
  P  P808  1  0.088800  0.129600  0.218900  1.0  1.6556
  P  P809  1  0.134700  0.183800  0.279200  1.0  1.4978
  P  P810  1  0.046000  0.148300  0.311700  1.0  1.5982
  P  P811  1  0.588800  0.629600  0.218900  1.0  1.6556
  P  P812  1  0.634700  0.683800  0.279200  1.0  1.4978
  P  P813  1  0.546000  0.648300  0.311700  1.0  1.5982
  P  P814  1  0.588800  0.129600  0.718900  1.0  1.6556
  P  P815  1  0.634700  0.183800  0.779200  1.0  1.4978
  P  P816  1  0.546000  0.148300  0.811700  1.0  1.5982
  P  P817  1  0.281100  0.088800  0.370400  1.0  1.6574
  P  P818  1  0.220800  0.134700  0.316200  1.0  1.4946
  P  P819  1  0.188300  0.046000  0.351700  1.0  1.6006
  P  P820  1  0.281100  0.588800  0.870400  1.0  1.6574
  P  P821  1  0.220800  0.634700  0.816200  1.0  1.4946
  P  P822  1  0.188300  0.546000  0.851700  1.0  1.6006
  P  P823  1  0.781100  0.088800  0.870400  1.0  1.6574
  P  P824  1  0.720800  0.134700  0.816200  1.0  1.4946
  P  P825  1  0.688300  0.046000  0.851700  1.0  1.6006
  P  P826  1  0.781100  0.588800  0.370400  1.0  1.6574
  P  P827  1  0.720800  0.634700  0.316200  1.0  1.4946
  P  P828  1  0.688300  0.546000  0.351700  1.0  1.6006
  P  P829  1  0.281100  0.911200  0.629600  1.0  1.6584
  P  P830  1  0.220800  0.865300  0.683800  1.0  1.497
  P  P831  1  0.188300  0.954000  0.648300  1.0  1.6009
  P  P832  1  0.281100  0.411200  0.129600  1.0  1.6584
  P  P833  1  0.220800  0.365300  0.183800  1.0  1.497
  P  P834  1  0.188300  0.454000  0.148300  1.0  1.6009
  P  P835  1  0.781100  0.911200  0.129600  1.0  1.6584
  P  P836  1  0.720800  0.865300  0.183800  1.0  1.497
  P  P837  1  0.688300  0.954000  0.148300  1.0  1.6009
  P  P838  1  0.781100  0.411200  0.629600  1.0  1.6584
  P  P839  1  0.720800  0.365300  0.683800  1.0  1.497
  P  P840  1  0.688300  0.454000  0.648300  1.0  1.6009
  P  P841  1  0.718900  0.911200  0.370400  1.0  1.6546
  P  P842  1  0.779200  0.865300  0.316200  1.0  1.492
  P  P843  1  0.811700  0.954000  0.351700  1.0  1.6023
  P  P844  1  0.718900  0.411200  0.870400  1.0  1.6546
  P  P845  1  0.779200  0.365300  0.816200  1.0  1.492
  P  P846  1  0.811700  0.454000  0.851700  1.0  1.6023
  P  P847  1  0.218900  0.911200  0.870400  1.0  1.6546
  P  P848  1  0.279200  0.865300  0.816200  1.0  1.492
  P  P849  1  0.311700  0.954000  0.851700  1.0  1.6023
  P  P850  1  0.218900  0.411200  0.370400  1.0  1.6546
  P  P851  1  0.279200  0.365300  0.316200  1.0  1.492
  P  P852  1  0.311700  0.454000  0.351700  1.0  1.6023
  P  P853  1  0.718900  0.088800  0.629600  1.0  1.6559
  P  P854  1  0.779200  0.134700  0.683800  1.0  1.4948
  P  P855  1  0.811700  0.046000  0.648300  1.0  1.6008
  P  P856  1  0.718900  0.588800  0.129600  1.0  1.6559
  P  P857  1  0.779200  0.634700  0.183800  1.0  1.4948
  P  P858  1  0.811700  0.546000  0.148300  1.0  1.6008
  P  P859  1  0.218900  0.088800  0.129600  1.0  1.6559
  P  P860  1  0.279200  0.134700  0.183800  1.0  1.4948
  P  P861  1  0.311700  0.046000  0.148300  1.0  1.6008
  P  P862  1  0.218900  0.588800  0.629600  1.0  1.6559
  P  P863  1  0.279200  0.634700  0.683800  1.0  1.4948
  P  P864  1  0.311700  0.546000  0.648300  1.0  1.6008
  P  P865  1  0.370400  0.281100  0.088800  1.0  1.658
  P  P866  1  0.316200  0.220800  0.134700  1.0  1.4919
  P  P867  1  0.351700  0.188300  0.046000  1.0  1.5984
  P  P868  1  0.370400  0.781100  0.588800  1.0  1.658
  P  P869  1  0.316200  0.720800  0.634700  1.0  1.4919
  P  P870  1  0.351700  0.688300  0.546000  1.0  1.5984
  P  P871  1  0.870400  0.281100  0.588800  1.0  1.658
  P  P872  1  0.816200  0.220800  0.634700  1.0  1.4919
  P  P873  1  0.851700  0.188300  0.546000  1.0  1.5984
  P  P874  1  0.870400  0.781100  0.088800  1.0  1.658
  P  P875  1  0.816200  0.720800  0.134700  1.0  1.4919
  P  P876  1  0.851700  0.688300  0.046000  1.0  1.5984
  P  P877  1  0.629600  0.281100  0.911200  1.0  1.6557
  P  P878  1  0.683800  0.220800  0.865300  1.0  1.4954
  P  P879  1  0.648300  0.188300  0.954000  1.0  1.5984
  P  P880  1  0.629600  0.781100  0.411200  1.0  1.6557
  P  P881  1  0.683800  0.720800  0.365300  1.0  1.4954
  P  P882  1  0.648300  0.688300  0.454000  1.0  1.5984
  P  P883  1  0.129600  0.281100  0.411200  1.0  1.6557
  P  P884  1  0.183800  0.220800  0.365300  1.0  1.4954
  P  P885  1  0.148300  0.188300  0.454000  1.0  1.5984
  P  P886  1  0.129600  0.781100  0.911200  1.0  1.6557
  P  P887  1  0.183800  0.720800  0.865300  1.0  1.4954
  P  P888  1  0.148300  0.688300  0.954000  1.0  1.5984
  P  P889  1  0.370400  0.718900  0.911200  1.0  1.6581
  P  P890  1  0.316200  0.779200  0.865300  1.0  1.4917
  P  P891  1  0.351700  0.811700  0.954000  1.0  1.5986
  P  P892  1  0.370400  0.218900  0.411200  1.0  1.6581
  P  P893  1  0.316200  0.279200  0.365300  1.0  1.4917
  P  P894  1  0.351700  0.311700  0.454000  1.0  1.5986
  P  P895  1  0.870400  0.718900  0.411200  1.0  1.6581
  P  P896  1  0.816200  0.779200  0.365300  1.0  1.4917
  P  P897  1  0.851700  0.811700  0.454000  1.0  1.5986
  P  P898  1  0.870400  0.218900  0.911200  1.0  1.6581
  P  P899  1  0.816200  0.279200  0.865300  1.0  1.4917
  P  P900  1  0.851700  0.311700  0.954000  1.0  1.5986
  P  P901  1  0.629600  0.718900  0.088800  1.0  1.6568
  P  P902  1  0.683800  0.779200  0.134700  1.0  1.4952
  P  P903  1  0.648300  0.811700  0.046000  1.0  1.5986
  P  P904  1  0.629600  0.218900  0.588800  1.0  1.6568
  P  P905  1  0.683800  0.279200  0.634700  1.0  1.4952
  P  P906  1  0.648300  0.311700  0.546000  1.0  1.5986
  P  P907  1  0.129600  0.718900  0.588800  1.0  1.6568
  P  P908  1  0.183800  0.779200  0.634700  1.0  1.4952
  P  P909  1  0.148300  0.811700  0.546000  1.0  1.5986
  P  P910  1  0.129600  0.218900  0.088800  1.0  1.6568
  P  P911  1  0.183800  0.279200  0.134700  1.0  1.4952
  P  P912  1  0.148300  0.311700  0.046000  1.0  1.5986
  P  P913  1  0.870400  0.588800  0.218900  1.0  1.6583
  P  P914  1  0.816200  0.634700  0.279200  1.0  1.4947
  P  P915  1  0.851700  0.546000  0.311700  1.0  1.5961
  P  P916  1  0.870400  0.088800  0.718900  1.0  1.6583
  P  P917  1  0.816200  0.134700  0.779200  1.0  1.4947
  P  P918  1  0.851700  0.046000  0.811700  1.0  1.5961
  P  P919  1  0.370400  0.588800  0.718900  1.0  1.6583
  P  P920  1  0.316200  0.634700  0.779200  1.0  1.4947
  P  P921  1  0.351700  0.546000  0.811700  1.0  1.5961
  P  P922  1  0.370400  0.088800  0.218900  1.0  1.6583
  P  P923  1  0.316200  0.134700  0.279200  1.0  1.4947
  P  P924  1  0.351700  0.046000  0.311700  1.0  1.5961
  P  P925  1  0.129600  0.411200  0.218900  1.0  1.6562
  P  P926  1  0.183800  0.365300  0.279200  1.0  1.498
  P  P927  1  0.148300  0.454000  0.311700  1.0  1.5968
  P  P928  1  0.129600  0.911200  0.718900  1.0  1.6562
  P  P929  1  0.183800  0.865300  0.779200  1.0  1.498
  P  P930  1  0.148300  0.954000  0.811700  1.0  1.5968
  P  P931  1  0.629600  0.411200  0.718900  1.0  1.6562
  P  P932  1  0.683800  0.365300  0.779200  1.0  1.498
  P  P933  1  0.648300  0.454000  0.811700  1.0  1.5968
  P  P934  1  0.629600  0.911200  0.218900  1.0  1.6562
  P  P935  1  0.683800  0.865300  0.279200  1.0  1.498
  P  P936  1  0.648300  0.954000  0.311700  1.0  1.5968
  P  P937  1  0.870400  0.411200  0.781100  1.0  1.6574
  P  P938  1  0.816200  0.365300  0.720800  1.0  1.4935
  P  P939  1  0.851700  0.454000  0.688300  1.0  1.5971
  P  P940  1  0.870400  0.911200  0.281100  1.0  1.6574
  P  P941  1  0.816200  0.865300  0.220800  1.0  1.4935
  P  P942  1  0.851700  0.954000  0.188300  1.0  1.5971
  P  P943  1  0.370400  0.411200  0.281100  1.0  1.6574
  P  P944  1  0.316200  0.365300  0.220800  1.0  1.4935
  P  P945  1  0.351700  0.454000  0.188300  1.0  1.5971
  P  P946  1  0.370400  0.911200  0.781100  1.0  1.6574
  P  P947  1  0.316200  0.865300  0.720800  1.0  1.4935
  P  P948  1  0.351700  0.954000  0.688300  1.0  1.5971
  P  P949  1  0.129600  0.588800  0.781100  1.0  1.6566
  P  P950  1  0.183800  0.634700  0.720800  1.0  1.4967
  P  P951  1  0.148300  0.546000  0.688300  1.0  1.5962
  P  P952  1  0.129600  0.088800  0.281100  1.0  1.6566
  P  P953  1  0.183800  0.134700  0.220800  1.0  1.4967
  P  P954  1  0.148300  0.046000  0.188300  1.0  1.5962
  P  P955  1  0.629600  0.588800  0.281100  1.0  1.6566
  P  P956  1  0.683800  0.634700  0.220800  1.0  1.4967
  P  P957  1  0.648300  0.546000  0.188300  1.0  1.5962
  P  P958  1  0.629600  0.088800  0.781100  1.0  1.6566
  P  P959  1  0.683800  0.134700  0.720800  1.0  1.4967
  P  P960  1  0.648300  0.046000  0.688300  1.0  1.5962
  P  P961  1  0.588800  0.781100  0.129600  1.0  1.6558
  P  P962  1  0.634700  0.720800  0.183800  1.0  1.4989
  P  P963  1  0.546000  0.688300  0.148300  1.0  1.5943
  P  P964  1  0.588800  0.281100  0.629600  1.0  1.6558
  P  P965  1  0.634700  0.220800  0.683800  1.0  1.4989
  P  P966  1  0.546000  0.188300  0.648300  1.0  1.5943
  P  P967  1  0.088800  0.781100  0.629600  1.0  1.6558
  P  P968  1  0.134700  0.720800  0.683800  1.0  1.4989
  P  P969  1  0.046000  0.688300  0.648300  1.0  1.5943
  P  P970  1  0.088800  0.281100  0.129600  1.0  1.6558
  P  P971  1  0.134700  0.220800  0.183800  1.0  1.4989
  P  P972  1  0.046000  0.188300  0.148300  1.0  1.5943
  P  P973  1  0.411200  0.781100  0.870400  1.0  1.6572
  P  P974  1  0.365300  0.720800  0.816200  1.0  1.4952
  P  P975  1  0.454000  0.688300  0.851700  1.0  1.5946
  P  P976  1  0.411200  0.281100  0.370400  1.0  1.6572
  P  P977  1  0.365300  0.220800  0.316200  1.0  1.4952
  P  P978  1  0.454000  0.188300  0.351700  1.0  1.5946
  P  P979  1  0.911200  0.781100  0.370400  1.0  1.6572
  P  P980  1  0.865300  0.720800  0.316200  1.0  1.4952
  P  P981  1  0.954000  0.688300  0.351700  1.0  1.5946
  P  P982  1  0.911200  0.281100  0.870400  1.0  1.6572
  P  P983  1  0.865300  0.220800  0.816200  1.0  1.4952
  P  P984  1  0.954000  0.188300  0.851700  1.0  1.5946
  P  P985  1  0.411200  0.218900  0.129600  1.0  1.659
  P  P986  1  0.365300  0.279200  0.183800  1.0  1.4974
  P  P987  1  0.454000  0.311700  0.148300  1.0  1.5938
  P  P988  1  0.411200  0.718900  0.629600  1.0  1.659
  P  P989  1  0.365300  0.779200  0.683800  1.0  1.4974
  P  P990  1  0.454000  0.811700  0.648300  1.0  1.5938
  P  P991  1  0.911200  0.218900  0.629600  1.0  1.659
  P  P992  1  0.865300  0.279200  0.683800  1.0  1.4974
  P  P993  1  0.954000  0.311700  0.648300  1.0  1.5938
  P  P994  1  0.911200  0.718900  0.129600  1.0  1.659
  P  P995  1  0.865300  0.779200  0.183800  1.0  1.4974
  P  P996  1  0.954000  0.811700  0.148300  1.0  1.5938
  P  P997  1  0.588800  0.218900  0.870400  1.0  1.6552
  P  P998  1  0.634700  0.279200  0.816200  1.0  1.4963
  P  P999  1  0.546000  0.311700  0.851700  1.0  1.5949
  P  P1000  1  0.588800  0.718900  0.370400  1.0  1.6552
  P  P1001  1  0.634700  0.779200  0.316200  1.0  1.4963
  P  P1002  1  0.546000  0.811700  0.351700  1.0  1.5949
  P  P1003  1  0.088800  0.218900  0.370400  1.0  1.6552
  P  P1004  1  0.134700  0.279200  0.316200  1.0  1.4963
  P  P1005  1  0.046000  0.311700  0.351700  1.0  1.5949
  P  P1006  1  0.088800  0.718900  0.870400  1.0  1.6552
  P  P1007  1  0.134700  0.779200  0.816200  1.0  1.4963
  P  P1008  1  0.046000  0.811700  0.851700  1.0  1.5949
  P  P1009  1  0.781100  0.870400  0.411200  1.0  1.6576
  P  P1010  1  0.720800  0.816200  0.365300  1.0  1.4969
  P  P1011  1  0.688300  0.851700  0.454000  1.0  1.5997
  P  P1012  1  0.781100  0.370400  0.911200  1.0  1.6576
  P  P1013  1  0.720800  0.316200  0.865300  1.0  1.4969
  P  P1014  1  0.688300  0.351700  0.954000  1.0  1.5997
  P  P1015  1  0.281100  0.870400  0.911200  1.0  1.6576
  P  P1016  1  0.220800  0.816200  0.865300  1.0  1.4969
  P  P1017  1  0.188300  0.851700  0.954000  1.0  1.5997
  P  P1018  1  0.281100  0.370400  0.411200  1.0  1.6576
  P  P1019  1  0.220800  0.316200  0.365300  1.0  1.4969
  P  P1020  1  0.188300  0.351700  0.454000  1.0  1.5997
  P  P1021  1  0.781100  0.129600  0.588800  1.0  1.6587
  P  P1022  1  0.720800  0.183800  0.634700  1.0  1.4968
  P  P1023  1  0.688300  0.148300  0.546000  1.0  1.5994
  P  P1024  1  0.781100  0.629600  0.088800  1.0  1.6587
  P  P1025  1  0.720800  0.683800  0.134700  1.0  1.4968
  P  P1026  1  0.688300  0.648300  0.046000  1.0  1.5994
  P  P1027  1  0.281100  0.129600  0.088800  1.0  1.6587
  P  P1028  1  0.220800  0.183800  0.134700  1.0  1.4968
  P  P1029  1  0.188300  0.148300  0.046000  1.0  1.5994
  P  P1030  1  0.281100  0.629600  0.588800  1.0  1.6587
  P  P1031  1  0.220800  0.683800  0.634700  1.0  1.4968
  P  P1032  1  0.188300  0.648300  0.546000  1.0  1.5994
  P  P1033  1  0.218900  0.870400  0.588800  1.0  1.6562
  P  P1034  1  0.279200  0.816200  0.634700  1.0  1.4943
  P  P1035  1  0.311700  0.851700  0.546000  1.0  1.6008
  P  P1036  1  0.218900  0.370400  0.088800  1.0  1.6562
  P  P1037  1  0.279200  0.316200  0.134700  1.0  1.4943
  P  P1038  1  0.311700  0.351700  0.046000  1.0  1.6008
  P  P1039  1  0.718900  0.870400  0.088800  1.0  1.6562
  P  P1040  1  0.779200  0.816200  0.134700  1.0  1.4943
  P  P1041  1  0.811700  0.851700  0.046000  1.0  1.6008
  P  P1042  1  0.718900  0.370400  0.588800  1.0  1.6562
  P  P1043  1  0.779200  0.316200  0.634700  1.0  1.4943
  P  P1044  1  0.811700  0.351700  0.546000  1.0  1.6008
  P  P1045  1  0.218900  0.129600  0.411200  1.0  1.6558
  P  P1046  1  0.279200  0.183800  0.365300  1.0  1.4954
  P  P1047  1  0.311700  0.148300  0.454000  1.0  1.6
  P  P1048  1  0.218900  0.629600  0.911200  1.0  1.6558
  P  P1049  1  0.279200  0.683800  0.865300  1.0  1.4954
  P  P1050  1  0.311700  0.648300  0.954000  1.0  1.6
  P  P1051  1  0.718900  0.129600  0.911200  1.0  1.6558
  P  P1052  1  0.779200  0.183800  0.865300  1.0  1.4954
  P  P1053  1  0.811700  0.148300  0.954000  1.0  1.6
  P  P1054  1  0.718900  0.629600  0.411200  1.0  1.6558
  P  P1055  1  0.779200  0.683800  0.365300  1.0  1.4954
  P  P1056  1  0.811700  0.648300  0.454000  1.0  1.6
  P  P1057  1  0.911200  0.629600  0.718900  1.0  1.6586
  P  P1058  1  0.865300  0.683800  0.779200  1.0  1.4964
  P  P1059  1  0.954000  0.648300  0.811700  1.0  1.5977
  P  P1060  1  0.911200  0.129600  0.218900  1.0  1.6586
  P  P1061  1  0.865300  0.183800  0.279200  1.0  1.4964
  P  P1062  1  0.954000  0.148300  0.311700  1.0  1.5977
  P  P1063  1  0.411200  0.629600  0.218900  1.0  1.6586
  P  P1064  1  0.365300  0.683800  0.279200  1.0  1.4964
  P  P1065  1  0.454000  0.648300  0.311700  1.0  1.5977
  P  P1066  1  0.411200  0.129600  0.718900  1.0  1.6586
  P  P1067  1  0.365300  0.183800  0.779200  1.0  1.4964
  P  P1068  1  0.454000  0.148300  0.811700  1.0  1.5977
  P  P1069  1  0.088800  0.370400  0.718900  1.0  1.6558
  P  P1070  1  0.134700  0.316200  0.779200  1.0  1.4972
  P  P1071  1  0.046000  0.351700  0.811700  1.0  1.5987
  P  P1072  1  0.088800  0.870400  0.218900  1.0  1.6558
  P  P1073  1  0.134700  0.816200  0.279200  1.0  1.4972
  P  P1074  1  0.046000  0.851700  0.311700  1.0  1.5987
  P  P1075  1  0.588800  0.370400  0.218900  1.0  1.6558
  P  P1076  1  0.634700  0.316200  0.279200  1.0  1.4972
  P  P1077  1  0.546000  0.351700  0.311700  1.0  1.5987
  P  P1078  1  0.588800  0.870400  0.718900  1.0  1.6558
  P  P1079  1  0.634700  0.816200  0.779200  1.0  1.4972
  P  P1080  1  0.546000  0.851700  0.811700  1.0  1.5987
  P  P1081  1  0.088800  0.629600  0.281100  1.0  1.6558
  P  P1082  1  0.134700  0.683800  0.220800  1.0  1.4966
  P  P1083  1  0.046000  0.648300  0.188300  1.0  1.5983
  P  P1084  1  0.088800  0.129600  0.781100  1.0  1.6558
  P  P1085  1  0.134700  0.183800  0.720800  1.0  1.4966
  P  P1086  1  0.046000  0.148300  0.688300  1.0  1.5983
  P  P1087  1  0.588800  0.629600  0.781100  1.0  1.6558
  P  P1088  1  0.634700  0.683800  0.720800  1.0  1.4966
  P  P1089  1  0.546000  0.648300  0.688300  1.0  1.5983
  P  P1090  1  0.588800  0.129600  0.281100  1.0  1.6558
  P  P1091  1  0.634700  0.183800  0.220800  1.0  1.4966
  P  P1092  1  0.546000  0.148300  0.188300  1.0  1.5983
  P  P1093  1  0.911200  0.370400  0.281100  1.0  1.6576
  P  P1094  1  0.865300  0.316200  0.220800  1.0  1.4947
  P  P1095  1  0.954000  0.351700  0.188300  1.0  1.5985
  P  P1096  1  0.911200  0.870400  0.781100  1.0  1.6576
  P  P1097  1  0.865300  0.816200  0.720800  1.0  1.4947
  P  P1098  1  0.954000  0.851700  0.688300  1.0  1.5985
  P  P1099  1  0.411200  0.370400  0.781100  1.0  1.6576
  P  P1100  1  0.365300  0.316200  0.720800  1.0  1.4947
  P  P1101  1  0.454000  0.351700  0.688300  1.0  1.5985
  P  P1102  1  0.411200  0.870400  0.281100  1.0  1.6576
  P  P1103  1  0.365300  0.816200  0.220800  1.0  1.4947
  P  P1104  1  0.454000  0.851700  0.188300  1.0  1.5985
  P  P1105  1  0.718900  0.911200  0.629600  1.0  1.6556
  P  P1106  1  0.779200  0.865300  0.683800  1.0  1.4947
  P  P1107  1  0.811700  0.954000  0.648300  1.0  1.6016
  P  P1108  1  0.718900  0.411200  0.129600  1.0  1.6556
  P  P1109  1  0.779200  0.365300  0.183800  1.0  1.4947
  P  P1110  1  0.811700  0.454000  0.148300  1.0  1.6016
  P  P1111  1  0.218900  0.911200  0.129600  1.0  1.6556
  P  P1112  1  0.279200  0.865300  0.183800  1.0  1.4947
  P  P1113  1  0.311700  0.954000  0.148300  1.0  1.6016
  P  P1114  1  0.218900  0.411200  0.629600  1.0  1.6556
  P  P1115  1  0.279200  0.365300  0.683800  1.0  1.4947
  P  P1116  1  0.311700  0.454000  0.648300  1.0  1.6016
  P  P1117  1  0.718900  0.088800  0.370400  1.0  1.6548
  P  P1118  1  0.779200  0.134700  0.316200  1.0  1.4924
  P  P1119  1  0.811700  0.046000  0.351700  1.0  1.6013
  P  P1120  1  0.718900  0.588800  0.870400  1.0  1.6548
  P  P1121  1  0.779200  0.634700  0.816200  1.0  1.4924
  P  P1122  1  0.811700  0.546000  0.851700  1.0  1.6013
  P  P1123  1  0.218900  0.088800  0.870400  1.0  1.6548
  P  P1124  1  0.279200  0.134700  0.816200  1.0  1.4924
  P  P1125  1  0.311700  0.046000  0.851700  1.0  1.6013
  P  P1126  1  0.218900  0.588800  0.370400  1.0  1.6548
  P  P1127  1  0.279200  0.634700  0.316200  1.0  1.4924
  P  P1128  1  0.311700  0.546000  0.351700  1.0  1.6013
  P  P1129  1  0.281100  0.088800  0.629600  1.0  1.6588
  P  P1130  1  0.220800  0.134700  0.683800  1.0  1.4968
  P  P1131  1  0.188300  0.046000  0.648300  1.0  1.6001
  P  P1132  1  0.281100  0.588800  0.129600  1.0  1.6588
  P  P1133  1  0.220800  0.634700  0.183800  1.0  1.4968
  P  P1134  1  0.188300  0.546000  0.148300  1.0  1.6001
  P  P1135  1  0.781100  0.088800  0.129600  1.0  1.6588
  P  P1136  1  0.720800  0.134700  0.183800  1.0  1.4968
  P  P1137  1  0.688300  0.046000  0.148300  1.0  1.6001
  P  P1138  1  0.781100  0.588800  0.629600  1.0  1.6588
  P  P1139  1  0.720800  0.634700  0.683800  1.0  1.4968
  P  P1140  1  0.688300  0.546000  0.648300  1.0  1.6001
  P  P1141  1  0.281100  0.911200  0.370400  1.0  1.6572
  P  P1142  1  0.220800  0.865300  0.316200  1.0  1.4945
  P  P1143  1  0.188300  0.954000  0.351700  1.0  1.6017
  P  P1144  1  0.281100  0.411200  0.870400  1.0  1.6572
  P  P1145  1  0.220800  0.365300  0.816200  1.0  1.4945
  P  P1146  1  0.188300  0.454000  0.851700  1.0  1.6017
  P  P1147  1  0.781100  0.911200  0.870400  1.0  1.6572
  P  P1148  1  0.720800  0.865300  0.816200  1.0  1.4945
  P  P1149  1  0.688300  0.954000  0.851700  1.0  1.6017
  P  P1150  1  0.781100  0.411200  0.370400  1.0  1.6572
  P  P1151  1  0.720800  0.365300  0.316200  1.0  1.4945
  P  P1152  1  0.688300  0.454000  0.351700  1.0  1.6017
  P  P1153  1  0.629600  0.718900  0.911200  1.0  1.6567
  P  P1154  1  0.683800  0.779200  0.865300  1.0  1.4952
  P  P1155  1  0.648300  0.811700  0.954000  1.0  1.5985
  P  P1156  1  0.629600  0.218900  0.411200  1.0  1.6567
  P  P1157  1  0.683800  0.279200  0.365300  1.0  1.4952
  P  P1158  1  0.648300  0.311700  0.454000  1.0  1.5985
  P  P1159  1  0.129600  0.718900  0.411200  1.0  1.6567
  P  P1160  1  0.183800  0.779200  0.365300  1.0  1.4952
  P  P1161  1  0.148300  0.811700  0.454000  1.0  1.5985
  P  P1162  1  0.129600  0.218900  0.911200  1.0  1.6567
  P  P1163  1  0.183800  0.279200  0.865300  1.0  1.4952
  P  P1164  1  0.148300  0.311700  0.954000  1.0  1.5985
  P  P1165  1  0.370400  0.718900  0.088800  1.0  1.6588
  P  P1166  1  0.316200  0.779200  0.134700  1.0  1.4916
  P  P1167  1  0.351700  0.811700  0.046000  1.0  1.5984
  P  P1168  1  0.370400  0.218900  0.588800  1.0  1.6588
  P  P1169  1  0.316200  0.279200  0.634700  1.0  1.4916
  P  P1170  1  0.351700  0.311700  0.546000  1.0  1.5984
  P  P1171  1  0.870400  0.718900  0.588800  1.0  1.6588
  P  P1172  1  0.816200  0.779200  0.634700  1.0  1.4916
  P  P1173  1  0.851700  0.811700  0.546000  1.0  1.5984
  P  P1174  1  0.870400  0.218900  0.088800  1.0  1.6588
  P  P1175  1  0.816200  0.279200  0.134700  1.0  1.4916
  P  P1176  1  0.851700  0.311700  0.046000  1.0  1.5984
  P  P1177  1  0.629600  0.281100  0.088800  1.0  1.6561
  P  P1178  1  0.683800  0.220800  0.134700  1.0  1.4954
  P  P1179  1  0.648300  0.188300  0.046000  1.0  1.5985
  P  P1180  1  0.629600  0.781100  0.588800  1.0  1.6561
  P  P1181  1  0.683800  0.720800  0.634700  1.0  1.4954
  P  P1182  1  0.648300  0.688300  0.546000  1.0  1.5985
  P  P1183  1  0.129600  0.281100  0.588800  1.0  1.6561
  P  P1184  1  0.183800  0.220800  0.634700  1.0  1.4954
  P  P1185  1  0.148300  0.188300  0.546000  1.0  1.5985
  P  P1186  1  0.129600  0.781100  0.088800  1.0  1.6561
  P  P1187  1  0.183800  0.720800  0.134700  1.0  1.4954
  P  P1188  1  0.148300  0.688300  0.046000  1.0  1.5985
  P  P1189  1  0.370400  0.281100  0.911200  1.0  1.6572
  P  P1190  1  0.316200  0.220800  0.865300  1.0  1.492
  P  P1191  1  0.351700  0.188300  0.954000  1.0  1.5986
  P  P1192  1  0.370400  0.781100  0.411200  1.0  1.6572
  P  P1193  1  0.316200  0.720800  0.365300  1.0  1.492
  P  P1194  1  0.351700  0.688300  0.454000  1.0  1.5986
  P  P1195  1  0.870400  0.281100  0.411200  1.0  1.6572
  P  P1196  1  0.816200  0.220800  0.365300  1.0  1.492
  P  P1197  1  0.851700  0.188300  0.454000  1.0  1.5986
  P  P1198  1  0.870400  0.781100  0.911200  1.0  1.6572
  P  P1199  1  0.816200  0.720800  0.865300  1.0  1.492
  P  P1200  1  0.851700  0.688300  0.954000  1.0  1.5986
  P  P1201  1  0.129600  0.411200  0.781100  1.0  1.6558
  P  P1202  1  0.183800  0.365300  0.720800  1.0  1.4966
  P  P1203  1  0.148300  0.454000  0.688300  1.0  1.597
  P  P1204  1  0.129600  0.911200  0.281100  1.0  1.6558
  P  P1205  1  0.183800  0.865300  0.220800  1.0  1.4966
  P  P1206  1  0.148300  0.954000  0.188300  1.0  1.597
  P  P1207  1  0.629600  0.411200  0.281100  1.0  1.6558
  P  P1208  1  0.683800  0.365300  0.220800  1.0  1.4966
  P  P1209  1  0.648300  0.454000  0.188300  1.0  1.597
  P  P1210  1  0.629600  0.911200  0.781100  1.0  1.6558
  P  P1211  1  0.683800  0.865300  0.720800  1.0  1.4966
  P  P1212  1  0.648300  0.954000  0.688300  1.0  1.597
  P  P1213  1  0.870400  0.588800  0.781100  1.0  1.6578
  P  P1214  1  0.816200  0.634700  0.720800  1.0  1.4935
  P  P1215  1  0.851700  0.546000  0.688300  1.0  1.5964
  P  P1216  1  0.870400  0.088800  0.281100  1.0  1.6578
  P  P1217  1  0.816200  0.134700  0.220800  1.0  1.4935
  P  P1218  1  0.851700  0.046000  0.188300  1.0  1.5964
  P  P1219  1  0.370400  0.588800  0.281100  1.0  1.6578
  P  P1220  1  0.316200  0.634700  0.220800  1.0  1.4935
  P  P1221  1  0.351700  0.546000  0.188300  1.0  1.5964
  P  P1222  1  0.370400  0.088800  0.781100  1.0  1.6578
  P  P1223  1  0.316200  0.134700  0.720800  1.0  1.4935
  P  P1224  1  0.351700  0.046000  0.688300  1.0  1.5964
  P  P1225  1  0.129600  0.588800  0.218900  1.0  1.6564
  P  P1226  1  0.183800  0.634700  0.279200  1.0  1.4981
  P  P1227  1  0.148300  0.546000  0.311700  1.0  1.596
  P  P1228  1  0.129600  0.088800  0.718900  1.0  1.6564
  P  P1229  1  0.183800  0.134700  0.779200  1.0  1.4981
  P  P1230  1  0.148300  0.046000  0.811700  1.0  1.596
  P  P1231  1  0.629600  0.588800  0.718900  1.0  1.6564
  P  P1232  1  0.683800  0.634700  0.779200  1.0  1.4981
  P  P1233  1  0.648300  0.546000  0.811700  1.0  1.596
  P  P1234  1  0.629600  0.088800  0.218900  1.0  1.6564
  P  P1235  1  0.683800  0.134700  0.279200  1.0  1.4981
  P  P1236  1  0.648300  0.046000  0.311700  1.0  1.596
  P  P1237  1  0.870400  0.411200  0.218900  1.0  1.6581
  P  P1238  1  0.816200  0.365300  0.279200  1.0  1.4945
  P  P1239  1  0.851700  0.454000  0.311700  1.0  1.597
  P  P1240  1  0.870400  0.911200  0.718900  1.0  1.6581
  P  P1241  1  0.816200  0.865300  0.779200  1.0  1.4945
  P  P1242  1  0.851700  0.954000  0.811700  1.0  1.597
  P  P1243  1  0.370400  0.411200  0.718900  1.0  1.6581
  P  P1244  1  0.316200  0.365300  0.779200  1.0  1.4945
  P  P1245  1  0.351700  0.454000  0.811700  1.0  1.597
  P  P1246  1  0.370400  0.911200  0.218900  1.0  1.6581
  P  P1247  1  0.316200  0.865300  0.279200  1.0  1.4945
  P  P1248  1  0.351700  0.954000  0.311700  1.0  1.597
  P  P1249  1  0.411200  0.218900  0.870400  1.0  1.6578
  P  P1250  1  0.365300  0.279200  0.816200  1.0  1.495
  P  P1251  1  0.454000  0.311700  0.851700  1.0  1.5947
  P  P1252  1  0.411200  0.718900  0.370400  1.0  1.6578
  P  P1253  1  0.365300  0.779200  0.316200  1.0  1.495
  P  P1254  1  0.454000  0.811700  0.351700  1.0  1.5947
  P  P1255  1  0.911200  0.218900  0.370400  1.0  1.6578
  P  P1256  1  0.865300  0.279200  0.316200  1.0  1.495
  P  P1257  1  0.954000  0.311700  0.351700  1.0  1.5947
  P  P1258  1  0.911200  0.718900  0.870400  1.0  1.6578
  P  P1259  1  0.865300  0.779200  0.816200  1.0  1.495
  P  P1260  1  0.954000  0.811700  0.851700  1.0  1.5947
  P  P1261  1  0.588800  0.218900  0.129600  1.0  1.6563
  P  P1262  1  0.634700  0.279200  0.183800  1.0  1.4988
  P  P1263  1  0.546000  0.311700  0.148300  1.0  1.5942
  P  P1264  1  0.588800  0.718900  0.629600  1.0  1.6563
  P  P1265  1  0.634700  0.779200  0.683800  1.0  1.4988
  P  P1266  1  0.546000  0.811700  0.648300  1.0  1.5942
  P  P1267  1  0.088800  0.218900  0.629600  1.0  1.6563
  P  P1268  1  0.134700  0.279200  0.683800  1.0  1.4988
  P  P1269  1  0.046000  0.311700  0.648300  1.0  1.5942
  P  P1270  1  0.088800  0.718900  0.129600  1.0  1.6563
  P  P1271  1  0.134700  0.779200  0.183800  1.0  1.4988
  P  P1272  1  0.046000  0.811700  0.148300  1.0  1.5942
  P  P1273  1  0.588800  0.781100  0.870400  1.0  1.6549
  P  P1274  1  0.634700  0.720800  0.816200  1.0  1.4966
  P  P1275  1  0.546000  0.688300  0.851700  1.0  1.5951
  P  P1276  1  0.588800  0.281100  0.370400  1.0  1.6549
  P  P1277  1  0.634700  0.220800  0.316200  1.0  1.4966
  P  P1278  1  0.546000  0.188300  0.351700  1.0  1.5951
  P  P1279  1  0.088800  0.781100  0.370400  1.0  1.6549
  P  P1280  1  0.134700  0.720800  0.316200  1.0  1.4966
  P  P1281  1  0.046000  0.688300  0.351700  1.0  1.5951
  P  P1282  1  0.088800  0.281100  0.870400  1.0  1.6549
  P  P1283  1  0.134700  0.220800  0.816200  1.0  1.4966
  P  P1284  1  0.046000  0.188300  0.851700  1.0  1.5951
  P  P1285  1  0.411200  0.781100  0.129600  1.0  1.6582
  P  P1286  1  0.365300  0.720800  0.183800  1.0  1.4974
  P  P1287  1  0.454000  0.688300  0.148300  1.0  1.5936
  P  P1288  1  0.411200  0.281100  0.629600  1.0  1.6582
  P  P1289  1  0.365300  0.220800  0.683800  1.0  1.4974
  P  P1290  1  0.454000  0.188300  0.648300  1.0  1.5936
  P  P1291  1  0.911200  0.781100  0.629600  1.0  1.6582
  P  P1292  1  0.865300  0.720800  0.683800  1.0  1.4974
  P  P1293  1  0.954000  0.688300  0.648300  1.0  1.5936
  P  P1294  1  0.911200  0.281100  0.129600  1.0  1.6582
  P  P1295  1  0.865300  0.220800  0.183800  1.0  1.4974
  P  P1296  1  0.954000  0.188300  0.148300  1.0  1.5936
  P  P1297  1  0.218900  0.129600  0.588800  1.0  1.6559
  P  P1298  1  0.279200  0.183800  0.634700  1.0  1.4953
  P  P1299  1  0.311700  0.148300  0.546000  1.0  1.6
  P  P1300  1  0.218900  0.629600  0.088800  1.0  1.6559
  P  P1301  1  0.279200  0.683800  0.134700  1.0  1.4953
  P  P1302  1  0.311700  0.648300  0.046000  1.0  1.6
  P  P1303  1  0.718900  0.129600  0.088800  1.0  1.6559
  P  P1304  1  0.779200  0.183800  0.134700  1.0  1.4953
  P  P1305  1  0.811700  0.148300  0.046000  1.0  1.6
  P  P1306  1  0.718900  0.629600  0.588800  1.0  1.6559
  P  P1307  1  0.779200  0.683800  0.634700  1.0  1.4953
  P  P1308  1  0.811700  0.648300  0.546000  1.0  1.6
  P  P1309  1  0.218900  0.870400  0.411200  1.0  1.6555
  P  P1310  1  0.279200  0.816200  0.365300  1.0  1.4945
  P  P1311  1  0.311700  0.851700  0.454000  1.0  1.6004
  P  P1312  1  0.218900  0.370400  0.911200  1.0  1.6555
  P  P1313  1  0.279200  0.316200  0.865300  1.0  1.4945
  P  P1314  1  0.311700  0.351700  0.954000  1.0  1.6004
  P  P1315  1  0.718900  0.870400  0.911200  1.0  1.6555
  P  P1316  1  0.779200  0.816200  0.865300  1.0  1.4945
  P  P1317  1  0.811700  0.851700  0.954000  1.0  1.6004
  P  P1318  1  0.718900  0.370400  0.411200  1.0  1.6555
  P  P1319  1  0.779200  0.316200  0.365300  1.0  1.4945
  P  P1320  1  0.811700  0.351700  0.454000  1.0  1.6004
  P  P1321  1  0.781100  0.129600  0.411200  1.0  1.6581
  P  P1322  1  0.720800  0.183800  0.365300  1.0  1.497
  P  P1323  1  0.688300  0.148300  0.454000  1.0  1.5994
  P  P1324  1  0.781100  0.629600  0.911200  1.0  1.6581
  P  P1325  1  0.720800  0.683800  0.865300  1.0  1.497
  P  P1326  1  0.688300  0.648300  0.954000  1.0  1.5994
  P  P1327  1  0.281100  0.129600  0.911200  1.0  1.6581
  P  P1328  1  0.220800  0.183800  0.865300  1.0  1.497
  P  P1329  1  0.188300  0.148300  0.954000  1.0  1.5994
  P  P1330  1  0.281100  0.629600  0.411200  1.0  1.6581
  P  P1331  1  0.220800  0.683800  0.365300  1.0  1.497
  P  P1332  1  0.188300  0.648300  0.454000  1.0  1.5994
  P  P1333  1  0.781100  0.870400  0.588800  1.0  1.6585
  P  P1334  1  0.720800  0.816200  0.634700  1.0  1.4967
  P  P1335  1  0.688300  0.851700  0.546000  1.0  1.6001
  P  P1336  1  0.781100  0.370400  0.088800  1.0  1.6585
  P  P1337  1  0.720800  0.316200  0.134700  1.0  1.4967
  P  P1338  1  0.688300  0.351700  0.046000  1.0  1.6001
  P  P1339  1  0.281100  0.870400  0.088800  1.0  1.6585
  P  P1340  1  0.220800  0.816200  0.134700  1.0  1.4967
  P  P1341  1  0.188300  0.851700  0.046000  1.0  1.6001
  P  P1342  1  0.281100  0.370400  0.588800  1.0  1.6585
  P  P1343  1  0.220800  0.316200  0.634700  1.0  1.4967
  P  P1344  1  0.188300  0.351700  0.546000  1.0  1.6001
  P  P1345  1  0.000000  0.322300  0.277800  1.0  1.5913
  P  P1346  1  0.000000  0.390000  0.344500  1.0  1.4952
  P  P1347  1  0.000000  0.822300  0.777800  1.0  1.5913
  P  P1348  1  0.000000  0.890000  0.844500  1.0  1.4952
  P  P1349  1  0.500000  0.322300  0.777800  1.0  1.5913
  P  P1350  1  0.500000  0.390000  0.844500  1.0  1.4952
  P  P1351  1  0.500000  0.822300  0.277800  1.0  1.5913
  P  P1352  1  0.500000  0.890000  0.344500  1.0  1.4952
  P  P1353  1  0.000000  0.677700  0.277800  1.0  1.5912
  P  P1354  1  0.000000  0.610000  0.344500  1.0  1.4949
  P  P1355  1  0.000000  0.177700  0.777800  1.0  1.5912
  P  P1356  1  0.000000  0.110000  0.844500  1.0  1.4949
  P  P1357  1  0.500000  0.677700  0.777800  1.0  1.5912
  P  P1358  1  0.500000  0.610000  0.844500  1.0  1.4949
  P  P1359  1  0.500000  0.177700  0.277800  1.0  1.5912
  P  P1360  1  0.500000  0.110000  0.344500  1.0  1.4949
  P  P1361  1  0.000000  0.322300  0.722200  1.0  1.5909
  P  P1362  1  0.000000  0.390000  0.655500  1.0  1.4951
  P  P1363  1  0.000000  0.822300  0.222200  1.0  1.5909
  P  P1364  1  0.000000  0.890000  0.155500  1.0  1.4951
  P  P1365  1  0.500000  0.322300  0.222200  1.0  1.5909
  P  P1366  1  0.500000  0.390000  0.155500  1.0  1.4951
  P  P1367  1  0.500000  0.822300  0.722200  1.0  1.5909
  P  P1368  1  0.500000  0.890000  0.655500  1.0  1.4951
  P  P1369  1  0.000000  0.677700  0.722200  1.0  1.5908
  P  P1370  1  0.000000  0.610000  0.655500  1.0  1.4945
  P  P1371  1  0.000000  0.177700  0.222200  1.0  1.5908
  P  P1372  1  0.000000  0.110000  0.155500  1.0  1.4945
  P  P1373  1  0.500000  0.677700  0.222200  1.0  1.5908
  P  P1374  1  0.500000  0.610000  0.155500  1.0  1.4945
  P  P1375  1  0.500000  0.177700  0.722200  1.0  1.5908
  P  P1376  1  0.500000  0.110000  0.655500  1.0  1.4945
  P  P1377  1  0.277800  0.000000  0.322300  1.0  1.587
  P  P1378  1  0.344500  0.000000  0.390000  1.0  1.4902
  P  P1379  1  0.277800  0.500000  0.822300  1.0  1.587
  P  P1380  1  0.344500  0.500000  0.890000  1.0  1.4902
  P  P1381  1  0.777800  0.000000  0.822300  1.0  1.587
  P  P1382  1  0.844500  0.000000  0.890000  1.0  1.4902
  P  P1383  1  0.777800  0.500000  0.322300  1.0  1.587
  P  P1384  1  0.844500  0.500000  0.390000  1.0  1.4902
  P  P1385  1  0.277800  0.000000  0.677700  1.0  1.5866
  P  P1386  1  0.344500  0.000000  0.610000  1.0  1.4924
  P  P1387  1  0.277800  0.500000  0.177700  1.0  1.5866
  P  P1388  1  0.344500  0.500000  0.110000  1.0  1.4924
  P  P1389  1  0.777800  0.000000  0.177700  1.0  1.5866
  P  P1390  1  0.844500  0.000000  0.110000  1.0  1.4924
  P  P1391  1  0.777800  0.500000  0.677700  1.0  1.5866
  P  P1392  1  0.844500  0.500000  0.610000  1.0  1.4924
  P  P1393  1  0.722200  0.000000  0.322300  1.0  1.5866
  P  P1394  1  0.655500  0.000000  0.390000  1.0  1.4893
  P  P1395  1  0.722200  0.500000  0.822300  1.0  1.5866
  P  P1396  1  0.655500  0.500000  0.890000  1.0  1.4893
  P  P1397  1  0.222200  0.000000  0.822300  1.0  1.5866
  P  P1398  1  0.155500  0.000000  0.890000  1.0  1.4893
  P  P1399  1  0.222200  0.500000  0.322300  1.0  1.5866
  P  P1400  1  0.155500  0.500000  0.390000  1.0  1.4893
  P  P1401  1  0.722200  0.000000  0.677700  1.0  1.5862
  P  P1402  1  0.655500  0.000000  0.610000  1.0  1.4924
  P  P1403  1  0.722200  0.500000  0.177700  1.0  1.5862
  P  P1404  1  0.655500  0.500000  0.110000  1.0  1.4924
  P  P1405  1  0.222200  0.000000  0.177700  1.0  1.5862
  P  P1406  1  0.155500  0.000000  0.110000  1.0  1.4924
  P  P1407  1  0.222200  0.500000  0.677700  1.0  1.5862
  P  P1408  1  0.155500  0.500000  0.610000  1.0  1.4924
  P  P1409  1  0.322300  0.277800  0.000000  1.0  1.5863
  P  P1410  1  0.390000  0.344500  0.000000  1.0  1.4931
  P  P1411  1  0.322300  0.777800  0.500000  1.0  1.5863
  P  P1412  1  0.390000  0.844500  0.500000  1.0  1.4931
  P  P1413  1  0.822300  0.277800  0.500000  1.0  1.5863
  P  P1414  1  0.890000  0.344500  0.500000  1.0  1.4931
  P  P1415  1  0.822300  0.777800  0.000000  1.0  1.5863
  P  P1416  1  0.890000  0.844500  0.000000  1.0  1.4931
  P  P1417  1  0.677700  0.277800  0.000000  1.0  1.5867
  P  P1418  1  0.610000  0.344500  0.000000  1.0  1.4943
  P  P1419  1  0.677700  0.777800  0.500000  1.0  1.5867
  P  P1420  1  0.610000  0.844500  0.500000  1.0  1.4943
  P  P1421  1  0.177700  0.277800  0.500000  1.0  1.5867
  P  P1422  1  0.110000  0.344500  0.500000  1.0  1.4943
  P  P1423  1  0.177700  0.777800  0.000000  1.0  1.5867
  P  P1424  1  0.110000  0.844500  0.000000  1.0  1.4943
  P  P1425  1  0.322300  0.722200  0.000000  1.0  1.5863
  P  P1426  1  0.390000  0.655500  0.000000  1.0  1.4935
  P  P1427  1  0.322300  0.222200  0.500000  1.0  1.5863
  P  P1428  1  0.390000  0.155500  0.500000  1.0  1.4935
  P  P1429  1  0.822300  0.722200  0.500000  1.0  1.5863
  P  P1430  1  0.890000  0.655500  0.500000  1.0  1.4935
  P  P1431  1  0.822300  0.222200  0.000000  1.0  1.5863
  P  P1432  1  0.890000  0.155500  0.000000  1.0  1.4935
  P  P1433  1  0.677700  0.722200  0.000000  1.0  1.587
  P  P1434  1  0.610000  0.655500  0.000000  1.0  1.495
  P  P1435  1  0.677700  0.222200  0.500000  1.0  1.587
  P  P1436  1  0.610000  0.155500  0.500000  1.0  1.495
  P  P1437  1  0.177700  0.722200  0.500000  1.0  1.587
  P  P1438  1  0.110000  0.655500  0.500000  1.0  1.495
  P  P1439  1  0.177700  0.222200  0.000000  1.0  1.587
  P  P1440  1  0.110000  0.155500  0.000000  1.0  1.495
  P  P1441  1  0.822300  0.500000  0.222200  1.0  1.5824
  P  P1442  1  0.890000  0.500000  0.155500  1.0  1.4937
  P  P1443  1  0.822300  0.000000  0.722200  1.0  1.5824
  P  P1444  1  0.890000  0.000000  0.655500  1.0  1.4937
  P  P1445  1  0.322300  0.500000  0.722200  1.0  1.5824
  P  P1446  1  0.390000  0.500000  0.655500  1.0  1.4937
  P  P1447  1  0.322300  0.000000  0.222200  1.0  1.5824
  P  P1448  1  0.390000  0.000000  0.155500  1.0  1.4937
  P  P1449  1  0.177700  0.500000  0.222200  1.0  1.5829
  P  P1450  1  0.110000  0.500000  0.155500  1.0  1.4947
  P  P1451  1  0.177700  0.000000  0.722200  1.0  1.5829
  P  P1452  1  0.110000  0.000000  0.655500  1.0  1.4947
  P  P1453  1  0.677700  0.500000  0.722200  1.0  1.5829
  P  P1454  1  0.610000  0.500000  0.655500  1.0  1.4947
  P  P1455  1  0.677700  0.000000  0.222200  1.0  1.5829
  P  P1456  1  0.610000  0.000000  0.155500  1.0  1.4947
  P  P1457  1  0.822300  0.500000  0.777800  1.0  1.5824
  P  P1458  1  0.890000  0.500000  0.844500  1.0  1.4935
  P  P1459  1  0.822300  0.000000  0.277800  1.0  1.5824
  P  P1460  1  0.890000  0.000000  0.344500  1.0  1.4935
  P  P1461  1  0.322300  0.500000  0.277800  1.0  1.5824
  P  P1462  1  0.390000  0.500000  0.344500  1.0  1.4935
  P  P1463  1  0.322300  0.000000  0.777800  1.0  1.5824
  P  P1464  1  0.390000  0.000000  0.844500  1.0  1.4935
  P  P1465  1  0.177700  0.500000  0.777800  1.0  1.5827
  P  P1466  1  0.110000  0.500000  0.844500  1.0  1.4951
  P  P1467  1  0.177700  0.000000  0.277800  1.0  1.5827
  P  P1468  1  0.110000  0.000000  0.344500  1.0  1.4951
  P  P1469  1  0.677700  0.500000  0.277800  1.0  1.5827
  P  P1470  1  0.610000  0.500000  0.344500  1.0  1.4951
  P  P1471  1  0.677700  0.000000  0.777800  1.0  1.5827
  P  P1472  1  0.610000  0.000000  0.844500  1.0  1.4951
  P  P1473  1  0.500000  0.777800  0.177700  1.0  1.5858
  P  P1474  1  0.500000  0.844500  0.110000  1.0  1.4929
  P  P1475  1  0.500000  0.277800  0.677700  1.0  1.5858
  P  P1476  1  0.500000  0.344500  0.610000  1.0  1.4929
  P  P1477  1  0.000000  0.777800  0.677700  1.0  1.5858
  P  P1478  1  0.000000  0.844500  0.610000  1.0  1.4929
  P  P1479  1  0.000000  0.277800  0.177700  1.0  1.5858
  P  P1480  1  0.000000  0.344500  0.110000  1.0  1.4929
  P  P1481  1  0.500000  0.777800  0.822300  1.0  1.5863
  P  P1482  1  0.500000  0.844500  0.890000  1.0  1.4906
  P  P1483  1  0.500000  0.277800  0.322300  1.0  1.5863
  P  P1484  1  0.500000  0.344500  0.390000  1.0  1.4906
  P  P1485  1  0.000000  0.777800  0.322300  1.0  1.5863
  P  P1486  1  0.000000  0.844500  0.390000  1.0  1.4906
  P  P1487  1  0.000000  0.277800  0.822300  1.0  1.5863
  P  P1488  1  0.000000  0.344500  0.890000  1.0  1.4906
  P  P1489  1  0.500000  0.222200  0.177700  1.0  1.5859
  P  P1490  1  0.500000  0.155500  0.110000  1.0  1.4935
  P  P1491  1  0.500000  0.722200  0.677700  1.0  1.5859
  P  P1492  1  0.500000  0.655500  0.610000  1.0  1.4935
  P  P1493  1  0.000000  0.222200  0.677700  1.0  1.5859
  P  P1494  1  0.000000  0.155500  0.610000  1.0  1.4935
  P  P1495  1  0.000000  0.722200  0.177700  1.0  1.5859
  P  P1496  1  0.000000  0.655500  0.110000  1.0  1.4935
  P  P1497  1  0.500000  0.222200  0.822300  1.0  1.5866
  P  P1498  1  0.500000  0.155500  0.890000  1.0  1.4913
  P  P1499  1  0.500000  0.722200  0.322300  1.0  1.5866
  P  P1500  1  0.500000  0.655500  0.390000  1.0  1.4913
  P  P1501  1  0.000000  0.222200  0.322300  1.0  1.5866
  P  P1502  1  0.000000  0.155500  0.390000  1.0  1.4913
  P  P1503  1  0.000000  0.722200  0.822300  1.0  1.5866
  P  P1504  1  0.000000  0.655500  0.890000  1.0  1.4913
  P  P1505  1  0.777800  0.822300  0.500000  1.0  1.5814
  P  P1506  1  0.844500  0.890000  0.500000  1.0  1.4944
  P  P1507  1  0.777800  0.322300  0.000000  1.0  1.5814
  P  P1508  1  0.844500  0.390000  0.000000  1.0  1.4944
  P  P1509  1  0.277800  0.822300  0.000000  1.0  1.5814
  P  P1510  1  0.344500  0.890000  0.000000  1.0  1.4944
  P  P1511  1  0.277800  0.322300  0.500000  1.0  1.5814
  P  P1512  1  0.344500  0.390000  0.500000  1.0  1.4944
  P  P1513  1  0.777800  0.177700  0.500000  1.0  1.5813
  P  P1514  1  0.844500  0.110000  0.500000  1.0  1.4938
  P  P1515  1  0.777800  0.677700  0.000000  1.0  1.5813
  P  P1516  1  0.844500  0.610000  0.000000  1.0  1.4938
  P  P1517  1  0.277800  0.177700  0.000000  1.0  1.5813
  P  P1518  1  0.344500  0.110000  0.000000  1.0  1.4938
  P  P1519  1  0.277800  0.677700  0.500000  1.0  1.5813
  P  P1520  1  0.344500  0.610000  0.500000  1.0  1.4938
  P  P1521  1  0.222200  0.822300  0.500000  1.0  1.5811
  P  P1522  1  0.155500  0.890000  0.500000  1.0  1.4935
  P  P1523  1  0.222200  0.322300  0.000000  1.0  1.5811
  P  P1524  1  0.155500  0.390000  0.000000  1.0  1.4935
  P  P1525  1  0.722200  0.822300  0.000000  1.0  1.5811
  P  P1526  1  0.655500  0.890000  0.000000  1.0  1.4935
  P  P1527  1  0.722200  0.322300  0.500000  1.0  1.5811
  P  P1528  1  0.655500  0.390000  0.500000  1.0  1.4935
  P  P1529  1  0.222200  0.177700  0.500000  1.0  1.5809
  P  P1530  1  0.155500  0.110000  0.500000  1.0  1.4932
  P  P1531  1  0.222200  0.677700  0.000000  1.0  1.5809
  P  P1532  1  0.155500  0.610000  0.000000  1.0  1.4932
  P  P1533  1  0.722200  0.177700  0.000000  1.0  1.5809
  P  P1534  1  0.655500  0.110000  0.000000  1.0  1.4932
  P  P1535  1  0.722200  0.677700  0.500000  1.0  1.5809
  P  P1536  1  0.655500  0.610000  0.500000  1.0  1.4932
  O  O1537  1  0.080900  0.373900  0.250400  1.0  -0.8072
  O  O1538  1  0.114100  0.387300  0.287000  1.0  -0.9673
  O  O1539  1  0.101700  0.340900  0.281300  1.0  -0.8019
  O  O1540  1  0.065900  0.371200  0.298800  1.0  -0.9087
  O  O1541  1  0.135100  0.309300  0.253200  1.0  -0.8045
  O  O1542  1  0.134600  0.297100  0.199600  1.0  -0.8642
  O  O1543  1  0.157300  0.336500  0.218100  1.0  -0.9659
  O  O1544  1  0.028300  0.336800  0.285900  1.0  -0.8192
  O  O1545  1  0.055400  0.330400  0.167800  1.0  -0.813
  O  O1546  1  0.026600  0.382000  0.330000  1.0  -0.7739
  O  O1547  1  0.106500  0.329500  0.217100  1.0  -0.8191
  O  O1548  1  0.073400  0.366100  0.199600  1.0  -0.9147
  O  O1549  1  0.030500  0.341300  0.211700  1.0  -0.8576
  O  O1550  1  0.027900  0.372500  0.178300  1.0  -0.8614
  O  O1551  1  0.080900  0.873900  0.750400  1.0  -0.8072
  O  O1552  1  0.114100  0.887300  0.787000  1.0  -0.9673
  O  O1553  1  0.101700  0.840900  0.781300  1.0  -0.8019
  O  O1554  1  0.065900  0.871200  0.798800  1.0  -0.9087
  O  O1555  1  0.135100  0.809300  0.753200  1.0  -0.8045
  O  O1556  1  0.134600  0.797100  0.699600  1.0  -0.8642
  O  O1557  1  0.157300  0.836500  0.718100  1.0  -0.9659
  O  O1558  1  0.028300  0.836800  0.785900  1.0  -0.8192
  O  O1559  1  0.055400  0.830400  0.667800  1.0  -0.813
  O  O1560  1  0.026600  0.882000  0.830000  1.0  -0.7739
  O  O1561  1  0.106500  0.829500  0.717100  1.0  -0.8191
  O  O1562  1  0.073400  0.866100  0.699600  1.0  -0.9147
  O  O1563  1  0.030500  0.841300  0.711700  1.0  -0.8576
  O  O1564  1  0.027900  0.872500  0.678300  1.0  -0.8614
  O  O1565  1  0.580900  0.373900  0.750400  1.0  -0.8072
  O  O1566  1  0.614100  0.387300  0.787000  1.0  -0.9673
  O  O1567  1  0.601700  0.340900  0.781300  1.0  -0.8019
  O  O1568  1  0.565900  0.371200  0.798800  1.0  -0.9087
  O  O1569  1  0.635100  0.309300  0.753200  1.0  -0.8045
  O  O1570  1  0.634600  0.297100  0.699600  1.0  -0.8642
  O  O1571  1  0.657300  0.336500  0.718100  1.0  -0.9659
  O  O1572  1  0.528300  0.336800  0.785900  1.0  -0.8192
  O  O1573  1  0.555400  0.330400  0.667800  1.0  -0.813
  O  O1574  1  0.526600  0.382000  0.830000  1.0  -0.7739
  O  O1575  1  0.606500  0.329500  0.717100  1.0  -0.8191
  O  O1576  1  0.573400  0.366100  0.699600  1.0  -0.9147
  O  O1577  1  0.530500  0.341300  0.711700  1.0  -0.8576
  O  O1578  1  0.527900  0.372500  0.678300  1.0  -0.8614
  O  O1579  1  0.580900  0.873900  0.250400  1.0  -0.8072
  O  O1580  1  0.614100  0.887300  0.287000  1.0  -0.9673
  O  O1581  1  0.601700  0.840900  0.281300  1.0  -0.8019
  O  O1582  1  0.565900  0.871200  0.298800  1.0  -0.9087
  O  O1583  1  0.635100  0.809300  0.253200  1.0  -0.8045
  O  O1584  1  0.634600  0.797100  0.199600  1.0  -0.8642
  O  O1585  1  0.657300  0.836500  0.218100  1.0  -0.9659
  O  O1586  1  0.528300  0.836800  0.285900  1.0  -0.8192
  O  O1587  1  0.555400  0.830400  0.167800  1.0  -0.813
  O  O1588  1  0.526600  0.882000  0.330000  1.0  -0.7739
  O  O1589  1  0.606500  0.829500  0.217100  1.0  -0.8191
  O  O1590  1  0.573400  0.866100  0.199600  1.0  -0.9147
  O  O1591  1  0.530500  0.841300  0.211700  1.0  -0.8576
  O  O1592  1  0.527900  0.872500  0.178300  1.0  -0.8614
  O  O1593  1  0.919100  0.626100  0.250400  1.0  -0.8056
  O  O1594  1  0.885900  0.612700  0.287000  1.0  -0.9658
  O  O1595  1  0.898300  0.659100  0.281300  1.0  -0.8027
  O  O1596  1  0.934100  0.628800  0.298800  1.0  -0.9074
  O  O1597  1  0.864900  0.690700  0.253200  1.0  -0.8037
  O  O1598  1  0.865400  0.702900  0.199600  1.0  -0.8647
  O  O1599  1  0.842700  0.663500  0.218100  1.0  -0.9653
  O  O1600  1  0.971700  0.663200  0.285900  1.0  -0.8177
  O  O1601  1  0.944600  0.669600  0.167800  1.0  -0.8136
  O  O1602  1  0.973400  0.618000  0.330000  1.0  -0.771
  O  O1603  1  0.893500  0.670500  0.217100  1.0  -0.8199
  O  O1604  1  0.926600  0.633900  0.199600  1.0  -0.9145
  O  O1605  1  0.969500  0.658700  0.211700  1.0  -0.8573
  O  O1606  1  0.972100  0.627500  0.178300  1.0  -0.8597
  O  O1607  1  0.919100  0.126100  0.750400  1.0  -0.8056
  O  O1608  1  0.885900  0.112700  0.787000  1.0  -0.9658
  O  O1609  1  0.898300  0.159100  0.781300  1.0  -0.8027
  O  O1610  1  0.934100  0.128800  0.798800  1.0  -0.9074
  O  O1611  1  0.864900  0.190700  0.753200  1.0  -0.8037
  O  O1612  1  0.865400  0.202900  0.699600  1.0  -0.8647
  O  O1613  1  0.842700  0.163500  0.718100  1.0  -0.9653
  O  O1614  1  0.971700  0.163200  0.785900  1.0  -0.8177
  O  O1615  1  0.944600  0.169600  0.667800  1.0  -0.8136
  O  O1616  1  0.973400  0.118000  0.830000  1.0  -0.771
  O  O1617  1  0.893500  0.170500  0.717100  1.0  -0.8199
  O  O1618  1  0.926600  0.133900  0.699600  1.0  -0.9145
  O  O1619  1  0.969500  0.158700  0.711700  1.0  -0.8573
  O  O1620  1  0.972100  0.127500  0.678300  1.0  -0.8597
  O  O1621  1  0.419100  0.626100  0.750400  1.0  -0.8056
  O  O1622  1  0.385900  0.612700  0.787000  1.0  -0.9658
  O  O1623  1  0.398300  0.659100  0.781300  1.0  -0.8027
  O  O1624  1  0.434100  0.628800  0.798800  1.0  -0.9074
  O  O1625  1  0.364900  0.690700  0.753200  1.0  -0.8037
  O  O1626  1  0.365400  0.702900  0.699600  1.0  -0.8647
  O  O1627  1  0.342700  0.663500  0.718100  1.0  -0.9653
  O  O1628  1  0.471700  0.663200  0.785900  1.0  -0.8177
  O  O1629  1  0.444600  0.669600  0.667800  1.0  -0.8136
  O  O1630  1  0.473400  0.618000  0.830000  1.0  -0.771
  O  O1631  1  0.393500  0.670500  0.717100  1.0  -0.8199
  O  O1632  1  0.426600  0.633900  0.699600  1.0  -0.9145
  O  O1633  1  0.469500  0.658700  0.711700  1.0  -0.8573
  O  O1634  1  0.472100  0.627500  0.678300  1.0  -0.8597
  O  O1635  1  0.419100  0.126100  0.250400  1.0  -0.8056
  O  O1636  1  0.385900  0.112700  0.287000  1.0  -0.9658
  O  O1637  1  0.398300  0.159100  0.281300  1.0  -0.8027
  O  O1638  1  0.434100  0.128800  0.298800  1.0  -0.9074
  O  O1639  1  0.364900  0.190700  0.253200  1.0  -0.8037
  O  O1640  1  0.365400  0.202900  0.199600  1.0  -0.8647
  O  O1641  1  0.342700  0.163500  0.218100  1.0  -0.9653
  O  O1642  1  0.471700  0.163200  0.285900  1.0  -0.8177
  O  O1643  1  0.444600  0.169600  0.167800  1.0  -0.8136
  O  O1644  1  0.473400  0.118000  0.330000  1.0  -0.771
  O  O1645  1  0.393500  0.170500  0.217100  1.0  -0.8199
  O  O1646  1  0.426600  0.133900  0.199600  1.0  -0.9145
  O  O1647  1  0.469500  0.158700  0.211700  1.0  -0.8573
  O  O1648  1  0.472100  0.127500  0.178300  1.0  -0.8597
  O  O1649  1  0.919100  0.373900  0.749600  1.0  -0.8066
  O  O1650  1  0.885900  0.387300  0.713000  1.0  -0.967
  O  O1651  1  0.898300  0.340900  0.718700  1.0  -0.8031
  O  O1652  1  0.934100  0.371200  0.701200  1.0  -0.9081
  O  O1653  1  0.864900  0.309300  0.746800  1.0  -0.8041
  O  O1654  1  0.865400  0.297100  0.800400  1.0  -0.8654
  O  O1655  1  0.842700  0.336500  0.781900  1.0  -0.9659
  O  O1656  1  0.971700  0.336800  0.714100  1.0  -0.8169
  O  O1657  1  0.944600  0.330400  0.832200  1.0  -0.8143
  O  O1658  1  0.973400  0.382000  0.670000  1.0  -0.7739
  O  O1659  1  0.893500  0.329500  0.782900  1.0  -0.819
  O  O1660  1  0.926600  0.366100  0.800400  1.0  -0.9144
  O  O1661  1  0.969500  0.341300  0.788300  1.0  -0.8573
  O  O1662  1  0.972100  0.372500  0.821700  1.0  -0.8624
  O  O1663  1  0.919100  0.873900  0.249600  1.0  -0.8066
  O  O1664  1  0.885900  0.887300  0.213000  1.0  -0.967
  O  O1665  1  0.898300  0.840900  0.218700  1.0  -0.8031
  O  O1666  1  0.934100  0.871200  0.201200  1.0  -0.9081
  O  O1667  1  0.864900  0.809300  0.246800  1.0  -0.8041
  O  O1668  1  0.865400  0.797100  0.300400  1.0  -0.8654
  O  O1669  1  0.842700  0.836500  0.281900  1.0  -0.9659
  O  O1670  1  0.971700  0.836800  0.214100  1.0  -0.8169
  O  O1671  1  0.944600  0.830400  0.332200  1.0  -0.8143
  O  O1672  1  0.973400  0.882000  0.170000  1.0  -0.7739
  O  O1673  1  0.893500  0.829500  0.282900  1.0  -0.819
  O  O1674  1  0.926600  0.866100  0.300400  1.0  -0.9144
  O  O1675  1  0.969500  0.841300  0.288300  1.0  -0.8573
  O  O1676  1  0.972100  0.872500  0.321700  1.0  -0.8624
  O  O1677  1  0.419100  0.373900  0.249600  1.0  -0.8066
  O  O1678  1  0.385900  0.387300  0.213000  1.0  -0.967
  O  O1679  1  0.398300  0.340900  0.218700  1.0  -0.8031
  O  O1680  1  0.434100  0.371200  0.201200  1.0  -0.9081
  O  O1681  1  0.364900  0.309300  0.246800  1.0  -0.8041
  O  O1682  1  0.365400  0.297100  0.300400  1.0  -0.8654
  O  O1683  1  0.342700  0.336500  0.281900  1.0  -0.9659
  O  O1684  1  0.471700  0.336800  0.214100  1.0  -0.8169
  O  O1685  1  0.444600  0.330400  0.332200  1.0  -0.8143
  O  O1686  1  0.473400  0.382000  0.170000  1.0  -0.7739
  O  O1687  1  0.393500  0.329500  0.282900  1.0  -0.819
  O  O1688  1  0.426600  0.366100  0.300400  1.0  -0.9144
  O  O1689  1  0.469500  0.341300  0.288300  1.0  -0.8573
  O  O1690  1  0.472100  0.372500  0.321700  1.0  -0.8624
  O  O1691  1  0.419100  0.873900  0.749600  1.0  -0.8066
  O  O1692  1  0.385900  0.887300  0.713000  1.0  -0.967
  O  O1693  1  0.398300  0.840900  0.718700  1.0  -0.8031
  O  O1694  1  0.434100  0.871200  0.701200  1.0  -0.9081
  O  O1695  1  0.364900  0.809300  0.746800  1.0  -0.8041
  O  O1696  1  0.365400  0.797100  0.800400  1.0  -0.8654
  O  O1697  1  0.342700  0.836500  0.781900  1.0  -0.9659
  O  O1698  1  0.471700  0.836800  0.714100  1.0  -0.8169
  O  O1699  1  0.444600  0.830400  0.832200  1.0  -0.8143
  O  O1700  1  0.473400  0.882000  0.670000  1.0  -0.7739
  O  O1701  1  0.393500  0.829500  0.782900  1.0  -0.819
  O  O1702  1  0.426600  0.866100  0.800400  1.0  -0.9144
  O  O1703  1  0.469500  0.841300  0.788300  1.0  -0.8573
  O  O1704  1  0.472100  0.872500  0.821700  1.0  -0.8624
  O  O1705  1  0.080900  0.626100  0.749600  1.0  -0.8072
  O  O1706  1  0.114100  0.612700  0.713000  1.0  -0.9678
  O  O1707  1  0.101700  0.659100  0.718700  1.0  -0.8023
  O  O1708  1  0.065900  0.628800  0.701200  1.0  -0.9085
  O  O1709  1  0.135100  0.690700  0.746800  1.0  -0.8039
  O  O1710  1  0.134600  0.702900  0.800400  1.0  -0.8635
  O  O1711  1  0.157300  0.663500  0.781900  1.0  -0.9661
  O  O1712  1  0.028300  0.663200  0.714100  1.0  -0.8183
  O  O1713  1  0.055400  0.669600  0.832200  1.0  -0.8134
  O  O1714  1  0.026600  0.618000  0.670000  1.0  -0.7734
  O  O1715  1  0.106500  0.670500  0.782900  1.0  -0.8175
  O  O1716  1  0.073400  0.633900  0.800400  1.0  -0.9146
  O  O1717  1  0.030500  0.658700  0.788300  1.0  -0.8575
  O  O1718  1  0.027900  0.627500  0.821700  1.0  -0.8601
  O  O1719  1  0.080900  0.126100  0.249600  1.0  -0.8072
  O  O1720  1  0.114100  0.112700  0.213000  1.0  -0.9678
  O  O1721  1  0.101700  0.159100  0.218700  1.0  -0.8023
  O  O1722  1  0.065900  0.128800  0.201200  1.0  -0.9085
  O  O1723  1  0.135100  0.190700  0.246800  1.0  -0.8039
  O  O1724  1  0.134600  0.202900  0.300400  1.0  -0.8635
  O  O1725  1  0.157300  0.163500  0.281900  1.0  -0.9661
  O  O1726  1  0.028300  0.163200  0.214100  1.0  -0.8183
  O  O1727  1  0.055400  0.169600  0.332200  1.0  -0.8134
  O  O1728  1  0.026600  0.118000  0.170000  1.0  -0.7734
  O  O1729  1  0.106500  0.170500  0.282900  1.0  -0.8175
  O  O1730  1  0.073400  0.133900  0.300400  1.0  -0.9146
  O  O1731  1  0.030500  0.158700  0.288300  1.0  -0.8575
  O  O1732  1  0.027900  0.127500  0.321700  1.0  -0.8601
  O  O1733  1  0.580900  0.626100  0.249600  1.0  -0.8072
  O  O1734  1  0.614100  0.612700  0.213000  1.0  -0.9678
  O  O1735  1  0.601700  0.659100  0.218700  1.0  -0.8023
  O  O1736  1  0.565900  0.628800  0.201200  1.0  -0.9085
  O  O1737  1  0.635100  0.690700  0.246800  1.0  -0.8039
  O  O1738  1  0.634600  0.702900  0.300400  1.0  -0.8635
  O  O1739  1  0.657300  0.663500  0.281900  1.0  -0.9661
  O  O1740  1  0.528300  0.663200  0.214100  1.0  -0.8183
  O  O1741  1  0.555400  0.669600  0.332200  1.0  -0.8134
  O  O1742  1  0.526600  0.618000  0.170000  1.0  -0.7734
  O  O1743  1  0.606500  0.670500  0.282900  1.0  -0.8175
  O  O1744  1  0.573400  0.633900  0.300400  1.0  -0.9146
  O  O1745  1  0.530500  0.658700  0.288300  1.0  -0.8575
  O  O1746  1  0.527900  0.627500  0.321700  1.0  -0.8601
  O  O1747  1  0.580900  0.126100  0.749600  1.0  -0.8072
  O  O1748  1  0.614100  0.112700  0.713000  1.0  -0.9678
  O  O1749  1  0.601700  0.159100  0.718700  1.0  -0.8023
  O  O1750  1  0.565900  0.128800  0.701200  1.0  -0.9085
  O  O1751  1  0.635100  0.190700  0.746800  1.0  -0.8039
  O  O1752  1  0.634600  0.202900  0.800400  1.0  -0.8635
  O  O1753  1  0.657300  0.163500  0.781900  1.0  -0.9661
  O  O1754  1  0.528300  0.163200  0.714100  1.0  -0.8183
  O  O1755  1  0.555400  0.169600  0.832200  1.0  -0.8134
  O  O1756  1  0.526600  0.118000  0.670000  1.0  -0.7734
  O  O1757  1  0.606500  0.170500  0.782900  1.0  -0.8175
  O  O1758  1  0.573400  0.133900  0.800400  1.0  -0.9146
  O  O1759  1  0.530500  0.158700  0.788300  1.0  -0.8575
  O  O1760  1  0.527900  0.127500  0.821700  1.0  -0.8601
  O  O1761  1  0.250400  0.080900  0.373900  1.0  -0.8081
  O  O1762  1  0.287000  0.114100  0.387300  1.0  -0.9696
  O  O1763  1  0.281300  0.101700  0.340900  1.0  -0.8021
  O  O1764  1  0.298800  0.065900  0.371200  1.0  -0.9038
  O  O1765  1  0.253200  0.135100  0.309300  1.0  -0.804
  O  O1766  1  0.199600  0.134600  0.297100  1.0  -0.8635
  O  O1767  1  0.218100  0.157300  0.336500  1.0  -0.9661
  O  O1768  1  0.285900  0.028300  0.336800  1.0  -0.8169
  O  O1769  1  0.167800  0.055400  0.330400  1.0  -0.8145
  O  O1770  1  0.330000  0.026600  0.382000  1.0  -0.7734
  O  O1771  1  0.217100  0.106500  0.329500  1.0  -0.8213
  O  O1772  1  0.199600  0.073400  0.366100  1.0  -0.9106
  O  O1773  1  0.211700  0.030500  0.341300  1.0  -0.857
  O  O1774  1  0.178300  0.027900  0.372500  1.0  -0.8566
  O  O1775  1  0.250400  0.580900  0.873900  1.0  -0.8081
  O  O1776  1  0.287000  0.614100  0.887300  1.0  -0.9696
  O  O1777  1  0.281300  0.601700  0.840900  1.0  -0.8021
  O  O1778  1  0.298800  0.565900  0.871200  1.0  -0.9038
  O  O1779  1  0.253200  0.635100  0.809300  1.0  -0.804
  O  O1780  1  0.199600  0.634600  0.797100  1.0  -0.8635
  O  O1781  1  0.218100  0.657300  0.836500  1.0  -0.9661
  O  O1782  1  0.285900  0.528300  0.836800  1.0  -0.8169
  O  O1783  1  0.167800  0.555400  0.830400  1.0  -0.8145
  O  O1784  1  0.330000  0.526600  0.882000  1.0  -0.7734
  O  O1785  1  0.217100  0.606500  0.829500  1.0  -0.8213
  O  O1786  1  0.199600  0.573400  0.866100  1.0  -0.9106
  O  O1787  1  0.211700  0.530500  0.841300  1.0  -0.857
  O  O1788  1  0.178300  0.527900  0.872500  1.0  -0.8566
  O  O1789  1  0.750400  0.080900  0.873900  1.0  -0.8081
  O  O1790  1  0.787000  0.114100  0.887300  1.0  -0.9696
  O  O1791  1  0.781300  0.101700  0.840900  1.0  -0.8021
  O  O1792  1  0.798800  0.065900  0.871200  1.0  -0.9038
  O  O1793  1  0.753200  0.135100  0.809300  1.0  -0.804
  O  O1794  1  0.699600  0.134600  0.797100  1.0  -0.8635
  O  O1795  1  0.718100  0.157300  0.836500  1.0  -0.9661
  O  O1796  1  0.785900  0.028300  0.836800  1.0  -0.8169
  O  O1797  1  0.667800  0.055400  0.830400  1.0  -0.8145
  O  O1798  1  0.830000  0.026600  0.882000  1.0  -0.7734
  O  O1799  1  0.717100  0.106500  0.829500  1.0  -0.8213
  O  O1800  1  0.699600  0.073400  0.866100  1.0  -0.9106
  O  O1801  1  0.711700  0.030500  0.841300  1.0  -0.857
  O  O1802  1  0.678300  0.027900  0.872500  1.0  -0.8566
  O  O1803  1  0.750400  0.580900  0.373900  1.0  -0.8081
  O  O1804  1  0.787000  0.614100  0.387300  1.0  -0.9696
  O  O1805  1  0.781300  0.601700  0.340900  1.0  -0.8021
  O  O1806  1  0.798800  0.565900  0.371200  1.0  -0.9038
  O  O1807  1  0.753200  0.635100  0.309300  1.0  -0.804
  O  O1808  1  0.699600  0.634600  0.297100  1.0  -0.8635
  O  O1809  1  0.718100  0.657300  0.336500  1.0  -0.9661
  O  O1810  1  0.785900  0.528300  0.336800  1.0  -0.8169
  O  O1811  1  0.667800  0.555400  0.330400  1.0  -0.8145
  O  O1812  1  0.830000  0.526600  0.382000  1.0  -0.7734
  O  O1813  1  0.717100  0.606500  0.329500  1.0  -0.8213
  O  O1814  1  0.699600  0.573400  0.366100  1.0  -0.9106
  O  O1815  1  0.711700  0.530500  0.341300  1.0  -0.857
  O  O1816  1  0.678300  0.527900  0.372500  1.0  -0.8566
  O  O1817  1  0.250400  0.919100  0.626100  1.0  -0.8074
  O  O1818  1  0.287000  0.885900  0.612700  1.0  -0.9697
  O  O1819  1  0.281300  0.898300  0.659100  1.0  -0.8035
  O  O1820  1  0.298800  0.934100  0.628800  1.0  -0.9018
  O  O1821  1  0.253200  0.864900  0.690700  1.0  -0.8024
  O  O1822  1  0.199600  0.865400  0.702900  1.0  -0.8653
  O  O1823  1  0.218100  0.842700  0.663500  1.0  -0.9646
  O  O1824  1  0.285900  0.971700  0.663200  1.0  -0.8167
  O  O1825  1  0.167800  0.944600  0.669600  1.0  -0.8156
  O  O1826  1  0.330000  0.973400  0.618000  1.0  -0.7712
  O  O1827  1  0.217100  0.893500  0.670500  1.0  -0.8209
  O  O1828  1  0.199600  0.926600  0.633900  1.0  -0.9098
  O  O1829  1  0.211700  0.969500  0.658700  1.0  -0.8575
  O  O1830  1  0.178300  0.972100  0.627500  1.0  -0.8606
  O  O1831  1  0.250400  0.419100  0.126100  1.0  -0.8074
  O  O1832  1  0.287000  0.385900  0.112700  1.0  -0.9697
  O  O1833  1  0.281300  0.398300  0.159100  1.0  -0.8035
  O  O1834  1  0.298800  0.434100  0.128800  1.0  -0.9018
  O  O1835  1  0.253200  0.364900  0.190700  1.0  -0.8024
  O  O1836  1  0.199600  0.365400  0.202900  1.0  -0.8653
  O  O1837  1  0.218100  0.342700  0.163500  1.0  -0.9646
  O  O1838  1  0.285900  0.471700  0.163200  1.0  -0.8167
  O  O1839  1  0.167800  0.444600  0.169600  1.0  -0.8156
  O  O1840  1  0.330000  0.473400  0.118000  1.0  -0.7712
  O  O1841  1  0.217100  0.393500  0.170500  1.0  -0.8209
  O  O1842  1  0.199600  0.426600  0.133900  1.0  -0.9098
  O  O1843  1  0.211700  0.469500  0.158700  1.0  -0.8575
  O  O1844  1  0.178300  0.472100  0.127500  1.0  -0.8606
  O  O1845  1  0.750400  0.919100  0.126100  1.0  -0.8074
  O  O1846  1  0.787000  0.885900  0.112700  1.0  -0.9697
  O  O1847  1  0.781300  0.898300  0.159100  1.0  -0.8035
  O  O1848  1  0.798800  0.934100  0.128800  1.0  -0.9018
  O  O1849  1  0.753200  0.864900  0.190700  1.0  -0.8024
  O  O1850  1  0.699600  0.865400  0.202900  1.0  -0.8653
  O  O1851  1  0.718100  0.842700  0.163500  1.0  -0.9646
  O  O1852  1  0.785900  0.971700  0.163200  1.0  -0.8167
  O  O1853  1  0.667800  0.944600  0.169600  1.0  -0.8156
  O  O1854  1  0.830000  0.973400  0.118000  1.0  -0.7712
  O  O1855  1  0.717100  0.893500  0.170500  1.0  -0.8209
  O  O1856  1  0.699600  0.926600  0.133900  1.0  -0.9098
  O  O1857  1  0.711700  0.969500  0.158700  1.0  -0.8575
  O  O1858  1  0.678300  0.972100  0.127500  1.0  -0.8606
  O  O1859  1  0.750400  0.419100  0.626100  1.0  -0.8074
  O  O1860  1  0.787000  0.385900  0.612700  1.0  -0.9697
  O  O1861  1  0.781300  0.398300  0.659100  1.0  -0.8035
  O  O1862  1  0.798800  0.434100  0.628800  1.0  -0.9018
  O  O1863  1  0.753200  0.364900  0.690700  1.0  -0.8024
  O  O1864  1  0.699600  0.365400  0.702900  1.0  -0.8653
  O  O1865  1  0.718100  0.342700  0.663500  1.0  -0.9646
  O  O1866  1  0.785900  0.471700  0.663200  1.0  -0.8167
  O  O1867  1  0.667800  0.444600  0.669600  1.0  -0.8156
  O  O1868  1  0.830000  0.473400  0.618000  1.0  -0.7712
  O  O1869  1  0.717100  0.393500  0.670500  1.0  -0.8209
  O  O1870  1  0.699600  0.426600  0.633900  1.0  -0.9098
  O  O1871  1  0.711700  0.469500  0.658700  1.0  -0.8575
  O  O1872  1  0.678300  0.472100  0.627500  1.0  -0.8606
  O  O1873  1  0.749600  0.919100  0.373900  1.0  -0.808
  O  O1874  1  0.713000  0.885900  0.387300  1.0  -0.9692
  O  O1875  1  0.718700  0.898300  0.340900  1.0  -0.8013
  O  O1876  1  0.701200  0.934100  0.371200  1.0  -0.9048
  O  O1877  1  0.746800  0.864900  0.309300  1.0  -0.8039
  O  O1878  1  0.800400  0.865400  0.297100  1.0  -0.8643
  O  O1879  1  0.781900  0.842700  0.336500  1.0  -0.9657
  O  O1880  1  0.714100  0.971700  0.336800  1.0  -0.8179
  O  O1881  1  0.832200  0.944600  0.330400  1.0  -0.8142
  O  O1882  1  0.670000  0.973400  0.382000  1.0  -0.7726
  O  O1883  1  0.782900  0.893500  0.329500  1.0  -0.8201
  O  O1884  1  0.800400  0.926600  0.366100  1.0  -0.912
  O  O1885  1  0.788300  0.969500  0.341300  1.0  -0.8564
  O  O1886  1  0.821700  0.972100  0.372500  1.0  -0.8558
  O  O1887  1  0.749600  0.419100  0.873900  1.0  -0.808
  O  O1888  1  0.713000  0.385900  0.887300  1.0  -0.9692
  O  O1889  1  0.718700  0.398300  0.840900  1.0  -0.8013
  O  O1890  1  0.701200  0.434100  0.871200  1.0  -0.9048
  O  O1891  1  0.746800  0.364900  0.809300  1.0  -0.8039
  O  O1892  1  0.800400  0.365400  0.797100  1.0  -0.8643
  O  O1893  1  0.781900  0.342700  0.836500  1.0  -0.9657
  O  O1894  1  0.714100  0.471700  0.836800  1.0  -0.8179
  O  O1895  1  0.832200  0.444600  0.830400  1.0  -0.8142
  O  O1896  1  0.670000  0.473400  0.882000  1.0  -0.7726
  O  O1897  1  0.782900  0.393500  0.829500  1.0  -0.8201
  O  O1898  1  0.800400  0.426600  0.866100  1.0  -0.912
  O  O1899  1  0.788300  0.469500  0.841300  1.0  -0.8564
  O  O1900  1  0.821700  0.472100  0.872500  1.0  -0.8558
  O  O1901  1  0.249600  0.919100  0.873900  1.0  -0.808
  O  O1902  1  0.213000  0.885900  0.887300  1.0  -0.9692
  O  O1903  1  0.218700  0.898300  0.840900  1.0  -0.8013
  O  O1904  1  0.201200  0.934100  0.871200  1.0  -0.9048
  O  O1905  1  0.246800  0.864900  0.809300  1.0  -0.8039
  O  O1906  1  0.300400  0.865400  0.797100  1.0  -0.8643
  O  O1907  1  0.281900  0.842700  0.836500  1.0  -0.9657
  O  O1908  1  0.214100  0.971700  0.836800  1.0  -0.8179
  O  O1909  1  0.332200  0.944600  0.830400  1.0  -0.8142
  O  O1910  1  0.170000  0.973400  0.882000  1.0  -0.7726
  O  O1911  1  0.282900  0.893500  0.829500  1.0  -0.8201
  O  O1912  1  0.300400  0.926600  0.866100  1.0  -0.912
  O  O1913  1  0.288300  0.969500  0.841300  1.0  -0.8564
  O  O1914  1  0.321700  0.972100  0.872500  1.0  -0.8558
  O  O1915  1  0.249600  0.419100  0.373900  1.0  -0.808
  O  O1916  1  0.213000  0.385900  0.387300  1.0  -0.9692
  O  O1917  1  0.218700  0.398300  0.340900  1.0  -0.8013
  O  O1918  1  0.201200  0.434100  0.371200  1.0  -0.9048
  O  O1919  1  0.246800  0.364900  0.309300  1.0  -0.8039
  O  O1920  1  0.300400  0.365400  0.297100  1.0  -0.8643
  O  O1921  1  0.281900  0.342700  0.336500  1.0  -0.9657
  O  O1922  1  0.214100  0.471700  0.336800  1.0  -0.8179
  O  O1923  1  0.332200  0.444600  0.330400  1.0  -0.8142
  O  O1924  1  0.170000  0.473400  0.382000  1.0  -0.7726
  O  O1925  1  0.282900  0.393500  0.329500  1.0  -0.8201
  O  O1926  1  0.300400  0.426600  0.366100  1.0  -0.912
  O  O1927  1  0.288300  0.469500  0.341300  1.0  -0.8564
  O  O1928  1  0.321700  0.472100  0.372500  1.0  -0.8558
  O  O1929  1  0.749600  0.080900  0.626100  1.0  -0.8064
  O  O1930  1  0.713000  0.114100  0.612700  1.0  -0.9692
  O  O1931  1  0.718700  0.101700  0.659100  1.0  -0.8031
  O  O1932  1  0.701200  0.065900  0.628800  1.0  -0.9031
  O  O1933  1  0.746800  0.135100  0.690700  1.0  -0.8025
  O  O1934  1  0.800400  0.134600  0.702900  1.0  -0.8663
  O  O1935  1  0.781900  0.157300  0.663500  1.0  -0.9668
  O  O1936  1  0.714100  0.028300  0.663200  1.0  -0.8183
  O  O1937  1  0.832200  0.055400  0.669600  1.0  -0.8145
  O  O1938  1  0.670000  0.026600  0.618000  1.0  -0.7727
  O  O1939  1  0.782900  0.106500  0.670500  1.0  -0.8204
  O  O1940  1  0.800400  0.073400  0.633900  1.0  -0.9111
  O  O1941  1  0.788300  0.030500  0.658700  1.0  -0.8568
  O  O1942  1  0.821700  0.027900  0.627500  1.0  -0.8595
  O  O1943  1  0.749600  0.580900  0.126100  1.0  -0.8064
  O  O1944  1  0.713000  0.614100  0.112700  1.0  -0.9692
  O  O1945  1  0.718700  0.601700  0.159100  1.0  -0.8031
  O  O1946  1  0.701200  0.565900  0.128800  1.0  -0.9031
  O  O1947  1  0.746800  0.635100  0.190700  1.0  -0.8025
  O  O1948  1  0.800400  0.634600  0.202900  1.0  -0.8663
  O  O1949  1  0.781900  0.657300  0.163500  1.0  -0.9668
  O  O1950  1  0.714100  0.528300  0.163200  1.0  -0.8183
  O  O1951  1  0.832200  0.555400  0.169600  1.0  -0.8145
  O  O1952  1  0.670000  0.526600  0.118000  1.0  -0.7727
  O  O1953  1  0.782900  0.606500  0.170500  1.0  -0.8204
  O  O1954  1  0.800400  0.573400  0.133900  1.0  -0.9111
  O  O1955  1  0.788300  0.530500  0.158700  1.0  -0.8568
  O  O1956  1  0.821700  0.527900  0.127500  1.0  -0.8595
  O  O1957  1  0.249600  0.080900  0.126100  1.0  -0.8064
  O  O1958  1  0.213000  0.114100  0.112700  1.0  -0.9692
  O  O1959  1  0.218700  0.101700  0.159100  1.0  -0.8031
  O  O1960  1  0.201200  0.065900  0.128800  1.0  -0.9031
  O  O1961  1  0.246800  0.135100  0.190700  1.0  -0.8025
  O  O1962  1  0.300400  0.134600  0.202900  1.0  -0.8663
  O  O1963  1  0.281900  0.157300  0.163500  1.0  -0.9668
  O  O1964  1  0.214100  0.028300  0.163200  1.0  -0.8183
  O  O1965  1  0.332200  0.055400  0.169600  1.0  -0.8145
  O  O1966  1  0.170000  0.026600  0.118000  1.0  -0.7727
  O  O1967  1  0.282900  0.106500  0.170500  1.0  -0.8204
  O  O1968  1  0.300400  0.073400  0.133900  1.0  -0.9111
  O  O1969  1  0.288300  0.030500  0.158700  1.0  -0.8568
  O  O1970  1  0.321700  0.027900  0.127500  1.0  -0.8595
  O  O1971  1  0.249600  0.580900  0.626100  1.0  -0.8064
  O  O1972  1  0.213000  0.614100  0.612700  1.0  -0.9692
  O  O1973  1  0.218700  0.601700  0.659100  1.0  -0.8031
  O  O1974  1  0.201200  0.565900  0.628800  1.0  -0.9031
  O  O1975  1  0.246800  0.635100  0.690700  1.0  -0.8025
  O  O1976  1  0.300400  0.634600  0.702900  1.0  -0.8663
  O  O1977  1  0.281900  0.657300  0.663500  1.0  -0.9668
  O  O1978  1  0.214100  0.528300  0.663200  1.0  -0.8183
  O  O1979  1  0.332200  0.555400  0.669600  1.0  -0.8145
  O  O1980  1  0.170000  0.526600  0.618000  1.0  -0.7727
  O  O1981  1  0.282900  0.606500  0.670500  1.0  -0.8204
  O  O1982  1  0.300400  0.573400  0.633900  1.0  -0.9111
  O  O1983  1  0.288300  0.530500  0.658700  1.0  -0.8568
  O  O1984  1  0.321700  0.527900  0.627500  1.0  -0.8595
  O  O1985  1  0.373900  0.250400  0.080900  1.0  -0.8057
  O  O1986  1  0.387300  0.287000  0.114100  1.0  -0.9694
  O  O1987  1  0.340900  0.281300  0.101700  1.0  -0.8002
  O  O1988  1  0.371200  0.298800  0.065900  1.0  -0.9024
  O  O1989  1  0.309300  0.253200  0.135100  1.0  -0.8033
  O  O1990  1  0.297100  0.199600  0.134600  1.0  -0.8649
  O  O1991  1  0.336500  0.218100  0.157300  1.0  -0.9667
  O  O1992  1  0.336800  0.285900  0.028300  1.0  -0.8238
  O  O1993  1  0.330400  0.167800  0.055400  1.0  -0.8144
  O  O1994  1  0.382000  0.330000  0.026600  1.0  -0.7726
  O  O1995  1  0.329500  0.217100  0.106500  1.0  -0.8209
  O  O1996  1  0.366100  0.199600  0.073400  1.0  -0.9133
  O  O1997  1  0.341300  0.211700  0.030500  1.0  -0.8581
  O  O1998  1  0.372500  0.178300  0.027900  1.0  -0.8543
  O  O1999  1  0.373900  0.750400  0.580900  1.0  -0.8057
  O  O2000  1  0.387300  0.787000  0.614100  1.0  -0.9694
  O  O2001  1  0.340900  0.781300  0.601700  1.0  -0.8002
  O  O2002  1  0.371200  0.798800  0.565900  1.0  -0.9024
  O  O2003  1  0.309300  0.753200  0.635100  1.0  -0.8033
  O  O2004  1  0.297100  0.699600  0.634600  1.0  -0.8649
  O  O2005  1  0.336500  0.718100  0.657300  1.0  -0.9667
  O  O2006  1  0.336800  0.785900  0.528300  1.0  -0.8238
  O  O2007  1  0.330400  0.667800  0.555400  1.0  -0.8144
  O  O2008  1  0.382000  0.830000  0.526600  1.0  -0.7726
  O  O2009  1  0.329500  0.717100  0.606500  1.0  -0.8209
  O  O2010  1  0.366100  0.699600  0.573400  1.0  -0.9133
  O  O2011  1  0.341300  0.711700  0.530500  1.0  -0.8581
  O  O2012  1  0.372500  0.678300  0.527900  1.0  -0.8543
  O  O2013  1  0.873900  0.250400  0.580900  1.0  -0.8057
  O  O2014  1  0.887300  0.287000  0.614100  1.0  -0.9694
  O  O2015  1  0.840900  0.281300  0.601700  1.0  -0.8002
  O  O2016  1  0.871200  0.298800  0.565900  1.0  -0.9024
  O  O2017  1  0.809300  0.253200  0.635100  1.0  -0.8033
  O  O2018  1  0.797100  0.199600  0.634600  1.0  -0.8649
  O  O2019  1  0.836500  0.218100  0.657300  1.0  -0.9667
  O  O2020  1  0.836800  0.285900  0.528300  1.0  -0.8238
  O  O2021  1  0.830400  0.167800  0.555400  1.0  -0.8144
  O  O2022  1  0.882000  0.330000  0.526600  1.0  -0.7726
  O  O2023  1  0.829500  0.217100  0.606500  1.0  -0.8209
  O  O2024  1  0.866100  0.199600  0.573400  1.0  -0.9133
  O  O2025  1  0.841300  0.211700  0.530500  1.0  -0.8581
  O  O2026  1  0.872500  0.178300  0.527900  1.0  -0.8543
  O  O2027  1  0.873900  0.750400  0.080900  1.0  -0.8057
  O  O2028  1  0.887300  0.787000  0.114100  1.0  -0.9694
  O  O2029  1  0.840900  0.781300  0.101700  1.0  -0.8002
  O  O2030  1  0.871200  0.798800  0.065900  1.0  -0.9024
  O  O2031  1  0.809300  0.753200  0.135100  1.0  -0.8033
  O  O2032  1  0.797100  0.699600  0.134600  1.0  -0.8649
  O  O2033  1  0.836500  0.718100  0.157300  1.0  -0.9667
  O  O2034  1  0.836800  0.785900  0.028300  1.0  -0.8238
  O  O2035  1  0.830400  0.667800  0.055400  1.0  -0.8144
  O  O2036  1  0.882000  0.830000  0.026600  1.0  -0.7726
  O  O2037  1  0.829500  0.717100  0.106500  1.0  -0.8209
  O  O2038  1  0.866100  0.699600  0.073400  1.0  -0.9133
  O  O2039  1  0.841300  0.711700  0.030500  1.0  -0.8581
  O  O2040  1  0.872500  0.678300  0.027900  1.0  -0.8543
  O  O2041  1  0.626100  0.250400  0.919100  1.0  -0.8047
  O  O2042  1  0.612700  0.287000  0.885900  1.0  -0.9713
  O  O2043  1  0.659100  0.281300  0.898300  1.0  -0.8004
  O  O2044  1  0.628800  0.298800  0.934100  1.0  -0.9058
  O  O2045  1  0.690700  0.253200  0.864900  1.0  -0.8025
  O  O2046  1  0.702900  0.199600  0.865400  1.0  -0.8627
  O  O2047  1  0.663500  0.218100  0.842700  1.0  -0.9665
  O  O2048  1  0.663200  0.285900  0.971700  1.0  -0.8228
  O  O2049  1  0.669600  0.167800  0.944600  1.0  -0.8155
  O  O2050  1  0.618000  0.330000  0.973400  1.0  -0.7746
  O  O2051  1  0.670500  0.217100  0.893500  1.0  -0.8207
  O  O2052  1  0.633900  0.199600  0.926600  1.0  -0.9117
  O  O2053  1  0.658700  0.211700  0.969500  1.0  -0.8584
  O  O2054  1  0.627500  0.178300  0.972100  1.0  -0.8588
  O  O2055  1  0.626100  0.750400  0.419100  1.0  -0.8047
  O  O2056  1  0.612700  0.787000  0.385900  1.0  -0.9713
  O  O2057  1  0.659100  0.781300  0.398300  1.0  -0.8004
  O  O2058  1  0.628800  0.798800  0.434100  1.0  -0.9058
  O  O2059  1  0.690700  0.753200  0.364900  1.0  -0.8025
  O  O2060  1  0.702900  0.699600  0.365400  1.0  -0.8627
  O  O2061  1  0.663500  0.718100  0.342700  1.0  -0.9665
  O  O2062  1  0.663200  0.785900  0.471700  1.0  -0.8228
  O  O2063  1  0.669600  0.667800  0.444600  1.0  -0.8155
  O  O2064  1  0.618000  0.830000  0.473400  1.0  -0.7746
  O  O2065  1  0.670500  0.717100  0.393500  1.0  -0.8207
  O  O2066  1  0.633900  0.699600  0.426600  1.0  -0.9117
  O  O2067  1  0.658700  0.711700  0.469500  1.0  -0.8584
  O  O2068  1  0.627500  0.678300  0.472100  1.0  -0.8588
  O  O2069  1  0.126100  0.250400  0.419100  1.0  -0.8047
  O  O2070  1  0.112700  0.287000  0.385900  1.0  -0.9713
  O  O2071  1  0.159100  0.281300  0.398300  1.0  -0.8004
  O  O2072  1  0.128800  0.298800  0.434100  1.0  -0.9058
  O  O2073  1  0.190700  0.253200  0.364900  1.0  -0.8025
  O  O2074  1  0.202900  0.199600  0.365400  1.0  -0.8627
  O  O2075  1  0.163500  0.218100  0.342700  1.0  -0.9665
  O  O2076  1  0.163200  0.285900  0.471700  1.0  -0.8228
  O  O2077  1  0.169600  0.167800  0.444600  1.0  -0.8155
  O  O2078  1  0.118000  0.330000  0.473400  1.0  -0.7746
  O  O2079  1  0.170500  0.217100  0.393500  1.0  -0.8207
  O  O2080  1  0.133900  0.199600  0.426600  1.0  -0.9117
  O  O2081  1  0.158700  0.211700  0.469500  1.0  -0.8584
  O  O2082  1  0.127500  0.178300  0.472100  1.0  -0.8588
  O  O2083  1  0.126100  0.750400  0.919100  1.0  -0.8047
  O  O2084  1  0.112700  0.787000  0.885900  1.0  -0.9713
  O  O2085  1  0.159100  0.781300  0.898300  1.0  -0.8004
  O  O2086  1  0.128800  0.798800  0.934100  1.0  -0.9058
  O  O2087  1  0.190700  0.753200  0.864900  1.0  -0.8025
  O  O2088  1  0.202900  0.699600  0.865400  1.0  -0.8627
  O  O2089  1  0.163500  0.718100  0.842700  1.0  -0.9665
  O  O2090  1  0.163200  0.785900  0.971700  1.0  -0.8228
  O  O2091  1  0.169600  0.667800  0.944600  1.0  -0.8155
  O  O2092  1  0.118000  0.830000  0.973400  1.0  -0.7746
  O  O2093  1  0.170500  0.717100  0.893500  1.0  -0.8207
  O  O2094  1  0.133900  0.699600  0.926600  1.0  -0.9117
  O  O2095  1  0.158700  0.711700  0.969500  1.0  -0.8584
  O  O2096  1  0.127500  0.678300  0.972100  1.0  -0.8588
  O  O2097  1  0.373900  0.749600  0.919100  1.0  -0.8039
  O  O2098  1  0.387300  0.713000  0.885900  1.0  -0.9696
  O  O2099  1  0.340900  0.718700  0.898300  1.0  -0.8002
  O  O2100  1  0.371200  0.701200  0.934100  1.0  -0.9031
  O  O2101  1  0.309300  0.746800  0.864900  1.0  -0.8034
  O  O2102  1  0.297100  0.800400  0.865400  1.0  -0.8653
  O  O2103  1  0.336500  0.781900  0.842700  1.0  -0.9657
  O  O2104  1  0.336800  0.714100  0.971700  1.0  -0.8219
  O  O2105  1  0.330400  0.832200  0.944600  1.0  -0.8156
  O  O2106  1  0.382000  0.670000  0.973400  1.0  -0.7724
  O  O2107  1  0.329500  0.782900  0.893500  1.0  -0.8218
  O  O2108  1  0.366100  0.800400  0.926600  1.0  -0.9135
  O  O2109  1  0.341300  0.788300  0.969500  1.0  -0.8585
  O  O2110  1  0.372500  0.821700  0.972100  1.0  -0.8552
  O  O2111  1  0.373900  0.249600  0.419100  1.0  -0.8039
  O  O2112  1  0.387300  0.213000  0.385900  1.0  -0.9696
  O  O2113  1  0.340900  0.218700  0.398300  1.0  -0.8002
  O  O2114  1  0.371200  0.201200  0.434100  1.0  -0.9031
  O  O2115  1  0.309300  0.246800  0.364900  1.0  -0.8034
  O  O2116  1  0.297100  0.300400  0.365400  1.0  -0.8653
  O  O2117  1  0.336500  0.281900  0.342700  1.0  -0.9657
  O  O2118  1  0.336800  0.214100  0.471700  1.0  -0.8219
  O  O2119  1  0.330400  0.332200  0.444600  1.0  -0.8156
  O  O2120  1  0.382000  0.170000  0.473400  1.0  -0.7724
  O  O2121  1  0.329500  0.282900  0.393500  1.0  -0.8218
  O  O2122  1  0.366100  0.300400  0.426600  1.0  -0.9135
  O  O2123  1  0.341300  0.288300  0.469500  1.0  -0.8585
  O  O2124  1  0.372500  0.321700  0.472100  1.0  -0.8552
  O  O2125  1  0.873900  0.749600  0.419100  1.0  -0.8039
  O  O2126  1  0.887300  0.713000  0.385900  1.0  -0.9696
  O  O2127  1  0.840900  0.718700  0.398300  1.0  -0.8002
  O  O2128  1  0.871200  0.701200  0.434100  1.0  -0.9031
  O  O2129  1  0.809300  0.746800  0.364900  1.0  -0.8034
  O  O2130  1  0.797100  0.800400  0.365400  1.0  -0.8653
  O  O2131  1  0.836500  0.781900  0.342700  1.0  -0.9657
  O  O2132  1  0.836800  0.714100  0.471700  1.0  -0.8219
  O  O2133  1  0.830400  0.832200  0.444600  1.0  -0.8156
  O  O2134  1  0.882000  0.670000  0.473400  1.0  -0.7724
  O  O2135  1  0.829500  0.782900  0.393500  1.0  -0.8218
  O  O2136  1  0.866100  0.800400  0.426600  1.0  -0.9135
  O  O2137  1  0.841300  0.788300  0.469500  1.0  -0.8585
  O  O2138  1  0.872500  0.821700  0.472100  1.0  -0.8552
  O  O2139  1  0.873900  0.249600  0.919100  1.0  -0.8039
  O  O2140  1  0.887300  0.213000  0.885900  1.0  -0.9696
  O  O2141  1  0.840900  0.218700  0.898300  1.0  -0.8002
  O  O2142  1  0.871200  0.201200  0.934100  1.0  -0.9031
  O  O2143  1  0.809300  0.246800  0.864900  1.0  -0.8034
  O  O2144  1  0.797100  0.300400  0.865400  1.0  -0.8653
  O  O2145  1  0.836500  0.281900  0.842700  1.0  -0.9657
  O  O2146  1  0.836800  0.214100  0.971700  1.0  -0.8219
  O  O2147  1  0.830400  0.332200  0.944600  1.0  -0.8156
  O  O2148  1  0.882000  0.170000  0.973400  1.0  -0.7724
  O  O2149  1  0.829500  0.282900  0.893500  1.0  -0.8218
  O  O2150  1  0.866100  0.300400  0.926600  1.0  -0.9135
  O  O2151  1  0.841300  0.288300  0.969500  1.0  -0.8585
  O  O2152  1  0.872500  0.321700  0.972100  1.0  -0.8552
  O  O2153  1  0.626100  0.749600  0.080900  1.0  -0.805
  O  O2154  1  0.612700  0.713000  0.114100  1.0  -0.9698
  O  O2155  1  0.659100  0.718700  0.101700  1.0  -0.8002
  O  O2156  1  0.628800  0.701200  0.065900  1.0  -0.9048
  O  O2157  1  0.690700  0.746800  0.135100  1.0  -0.8029
  O  O2158  1  0.702900  0.800400  0.134600  1.0  -0.8631
  O  O2159  1  0.663500  0.781900  0.157300  1.0  -0.968
  O  O2160  1  0.663200  0.714100  0.028300  1.0  -0.8225
  O  O2161  1  0.669600  0.832200  0.055400  1.0  -0.8155
  O  O2162  1  0.618000  0.670000  0.026600  1.0  -0.7742
  O  O2163  1  0.670500  0.782900  0.106500  1.0  -0.8197
  O  O2164  1  0.633900  0.800400  0.073400  1.0  -0.9112
  O  O2165  1  0.658700  0.788300  0.030500  1.0  -0.8588
  O  O2166  1  0.627500  0.821700  0.027900  1.0  -0.8586
  O  O2167  1  0.626100  0.249600  0.580900  1.0  -0.805
  O  O2168  1  0.612700  0.213000  0.614100  1.0  -0.9698
  O  O2169  1  0.659100  0.218700  0.601700  1.0  -0.8002
  O  O2170  1  0.628800  0.201200  0.565900  1.0  -0.9048
  O  O2171  1  0.690700  0.246800  0.635100  1.0  -0.8029
  O  O2172  1  0.702900  0.300400  0.634600  1.0  -0.8631
  O  O2173  1  0.663500  0.281900  0.657300  1.0  -0.968
  O  O2174  1  0.663200  0.214100  0.528300  1.0  -0.8225
  O  O2175  1  0.669600  0.332200  0.555400  1.0  -0.8155
  O  O2176  1  0.618000  0.170000  0.526600  1.0  -0.7742
  O  O2177  1  0.670500  0.282900  0.606500  1.0  -0.8197
  O  O2178  1  0.633900  0.300400  0.573400  1.0  -0.9112
  O  O2179  1  0.658700  0.288300  0.530500  1.0  -0.8588
  O  O2180  1  0.627500  0.321700  0.527900  1.0  -0.8586
  O  O2181  1  0.126100  0.749600  0.580900  1.0  -0.805
  O  O2182  1  0.112700  0.713000  0.614100  1.0  -0.9698
  O  O2183  1  0.159100  0.718700  0.601700  1.0  -0.8002
  O  O2184  1  0.128800  0.701200  0.565900  1.0  -0.9048
  O  O2185  1  0.190700  0.746800  0.635100  1.0  -0.8029
  O  O2186  1  0.202900  0.800400  0.634600  1.0  -0.8631
  O  O2187  1  0.163500  0.781900  0.657300  1.0  -0.968
  O  O2188  1  0.163200  0.714100  0.528300  1.0  -0.8225
  O  O2189  1  0.169600  0.832200  0.555400  1.0  -0.8155
  O  O2190  1  0.118000  0.670000  0.526600  1.0  -0.7742
  O  O2191  1  0.170500  0.782900  0.606500  1.0  -0.8197
  O  O2192  1  0.133900  0.800400  0.573400  1.0  -0.9112
  O  O2193  1  0.158700  0.788300  0.530500  1.0  -0.8588
  O  O2194  1  0.127500  0.821700  0.527900  1.0  -0.8586
  O  O2195  1  0.126100  0.249600  0.080900  1.0  -0.805
  O  O2196  1  0.112700  0.213000  0.114100  1.0  -0.9698
  O  O2197  1  0.159100  0.218700  0.101700  1.0  -0.8002
  O  O2198  1  0.128800  0.201200  0.065900  1.0  -0.9048
  O  O2199  1  0.190700  0.246800  0.135100  1.0  -0.8029
  O  O2200  1  0.202900  0.300400  0.134600  1.0  -0.8631
  O  O2201  1  0.163500  0.281900  0.157300  1.0  -0.968
  O  O2202  1  0.163200  0.214100  0.028300  1.0  -0.8225
  O  O2203  1  0.169600  0.332200  0.055400  1.0  -0.8155
  O  O2204  1  0.118000  0.170000  0.026600  1.0  -0.7742
  O  O2205  1  0.170500  0.282900  0.106500  1.0  -0.8197
  O  O2206  1  0.133900  0.300400  0.073400  1.0  -0.9112
  O  O2207  1  0.158700  0.288300  0.030500  1.0  -0.8588
  O  O2208  1  0.127500  0.321700  0.027900  1.0  -0.8586
  O  O2209  1  0.873900  0.580900  0.249600  1.0  -0.8061
  O  O2210  1  0.887300  0.614100  0.213000  1.0  -0.966
  O  O2211  1  0.840900  0.601700  0.218700  1.0  -0.8009
  O  O2212  1  0.871200  0.565900  0.201200  1.0  -0.9037
  O  O2213  1  0.809300  0.635100  0.246800  1.0  -0.8036
  O  O2214  1  0.797100  0.634600  0.300400  1.0  -0.8653
  O  O2215  1  0.836500  0.657300  0.281900  1.0  -0.9675
  O  O2216  1  0.836800  0.528300  0.214100  1.0  -0.8204
  O  O2217  1  0.830400  0.555400  0.332200  1.0  -0.8148
  O  O2218  1  0.882000  0.526600  0.170000  1.0  -0.773
  O  O2219  1  0.829500  0.606500  0.282900  1.0  -0.8206
  O  O2220  1  0.866100  0.573400  0.300400  1.0  -0.9126
  O  O2221  1  0.841300  0.530500  0.288300  1.0  -0.8582
  O  O2222  1  0.872500  0.527900  0.321700  1.0  -0.8545
  O  O2223  1  0.873900  0.080900  0.749600  1.0  -0.8061
  O  O2224  1  0.887300  0.114100  0.713000  1.0  -0.966
  O  O2225  1  0.840900  0.101700  0.718700  1.0  -0.8009
  O  O2226  1  0.871200  0.065900  0.701200  1.0  -0.9037
  O  O2227  1  0.809300  0.135100  0.746800  1.0  -0.8036
  O  O2228  1  0.797100  0.134600  0.800400  1.0  -0.8653
  O  O2229  1  0.836500  0.157300  0.781900  1.0  -0.9675
  O  O2230  1  0.836800  0.028300  0.714100  1.0  -0.8204
  O  O2231  1  0.830400  0.055400  0.832200  1.0  -0.8148
  O  O2232  1  0.882000  0.026600  0.670000  1.0  -0.773
  O  O2233  1  0.829500  0.106500  0.782900  1.0  -0.8206
  O  O2234  1  0.866100  0.073400  0.800400  1.0  -0.9126
  O  O2235  1  0.841300  0.030500  0.788300  1.0  -0.8582
  O  O2236  1  0.872500  0.027900  0.821700  1.0  -0.8545
  O  O2237  1  0.373900  0.580900  0.749600  1.0  -0.8061
  O  O2238  1  0.387300  0.614100  0.713000  1.0  -0.966
  O  O2239  1  0.340900  0.601700  0.718700  1.0  -0.8009
  O  O2240  1  0.371200  0.565900  0.701200  1.0  -0.9037
  O  O2241  1  0.309300  0.635100  0.746800  1.0  -0.8036
  O  O2242  1  0.297100  0.634600  0.800400  1.0  -0.8653
  O  O2243  1  0.336500  0.657300  0.781900  1.0  -0.9675
  O  O2244  1  0.336800  0.528300  0.714100  1.0  -0.8204
  O  O2245  1  0.330400  0.555400  0.832200  1.0  -0.8148
  O  O2246  1  0.382000  0.526600  0.670000  1.0  -0.773
  O  O2247  1  0.329500  0.606500  0.782900  1.0  -0.8206
  O  O2248  1  0.366100  0.573400  0.800400  1.0  -0.9126
  O  O2249  1  0.341300  0.530500  0.788300  1.0  -0.8582
  O  O2250  1  0.372500  0.527900  0.821700  1.0  -0.8545
  O  O2251  1  0.373900  0.080900  0.249600  1.0  -0.8061
  O  O2252  1  0.387300  0.114100  0.213000  1.0  -0.966
  O  O2253  1  0.340900  0.101700  0.218700  1.0  -0.8009
  O  O2254  1  0.371200  0.065900  0.201200  1.0  -0.9037
  O  O2255  1  0.309300  0.135100  0.246800  1.0  -0.8036
  O  O2256  1  0.297100  0.134600  0.300400  1.0  -0.8653
  O  O2257  1  0.336500  0.157300  0.281900  1.0  -0.9675
  O  O2258  1  0.336800  0.028300  0.214100  1.0  -0.8204
  O  O2259  1  0.330400  0.055400  0.332200  1.0  -0.8148
  O  O2260  1  0.382000  0.026600  0.170000  1.0  -0.773
  O  O2261  1  0.329500  0.106500  0.282900  1.0  -0.8206
  O  O2262  1  0.366100  0.073400  0.300400  1.0  -0.9126
  O  O2263  1  0.341300  0.030500  0.288300  1.0  -0.8582
  O  O2264  1  0.372500  0.027900  0.321700  1.0  -0.8545
  O  O2265  1  0.126100  0.419100  0.249600  1.0  -0.8065
  O  O2266  1  0.112700  0.385900  0.213000  1.0  -0.968
  O  O2267  1  0.159100  0.398300  0.218700  1.0  -0.8006
  O  O2268  1  0.128800  0.434100  0.201200  1.0  -0.9059
  O  O2269  1  0.190700  0.364900  0.246800  1.0  -0.8026
  O  O2270  1  0.202900  0.365400  0.300400  1.0  -0.863
  O  O2271  1  0.163500  0.342700  0.281900  1.0  -0.9671
  O  O2272  1  0.163200  0.471700  0.214100  1.0  -0.82
  O  O2273  1  0.169600  0.444600  0.332200  1.0  -0.8154
  O  O2274  1  0.118000  0.473400  0.170000  1.0  -0.7742
  O  O2275  1  0.170500  0.393500  0.282900  1.0  -0.8192
  O  O2276  1  0.133900  0.426600  0.300400  1.0  -0.9111
  O  O2277  1  0.158700  0.469500  0.288300  1.0  -0.8586
  O  O2278  1  0.127500  0.472100  0.321700  1.0  -0.8585
  O  O2279  1  0.126100  0.919100  0.749600  1.0  -0.8065
  O  O2280  1  0.112700  0.885900  0.713000  1.0  -0.968
  O  O2281  1  0.159100  0.898300  0.718700  1.0  -0.8006
  O  O2282  1  0.128800  0.934100  0.701200  1.0  -0.9059
  O  O2283  1  0.190700  0.864900  0.746800  1.0  -0.8026
  O  O2284  1  0.202900  0.865400  0.800400  1.0  -0.863
  O  O2285  1  0.163500  0.842700  0.781900  1.0  -0.9671
  O  O2286  1  0.163200  0.971700  0.714100  1.0  -0.82
  O  O2287  1  0.169600  0.944600  0.832200  1.0  -0.8154
  O  O2288  1  0.118000  0.973400  0.670000  1.0  -0.7742
  O  O2289  1  0.170500  0.893500  0.782900  1.0  -0.8192
  O  O2290  1  0.133900  0.926600  0.800400  1.0  -0.9111
  O  O2291  1  0.158700  0.969500  0.788300  1.0  -0.8586
  O  O2292  1  0.127500  0.972100  0.821700  1.0  -0.8585
  O  O2293  1  0.626100  0.419100  0.749600  1.0  -0.8065
  O  O2294  1  0.612700  0.385900  0.713000  1.0  -0.968
  O  O2295  1  0.659100  0.398300  0.718700  1.0  -0.8006
  O  O2296  1  0.628800  0.434100  0.701200  1.0  -0.9059
  O  O2297  1  0.690700  0.364900  0.746800  1.0  -0.8026
  O  O2298  1  0.702900  0.365400  0.800400  1.0  -0.863
  O  O2299  1  0.663500  0.342700  0.781900  1.0  -0.9671
  O  O2300  1  0.663200  0.471700  0.714100  1.0  -0.82
  O  O2301  1  0.669600  0.444600  0.832200  1.0  -0.8154
  O  O2302  1  0.618000  0.473400  0.670000  1.0  -0.7742
  O  O2303  1  0.670500  0.393500  0.782900  1.0  -0.8192
  O  O2304  1  0.633900  0.426600  0.800400  1.0  -0.9111
  O  O2305  1  0.658700  0.469500  0.788300  1.0  -0.8586
  O  O2306  1  0.627500  0.472100  0.821700  1.0  -0.8585
  O  O2307  1  0.626100  0.919100  0.249600  1.0  -0.8065
  O  O2308  1  0.612700  0.885900  0.213000  1.0  -0.968
  O  O2309  1  0.659100  0.898300  0.218700  1.0  -0.8006
  O  O2310  1  0.628800  0.934100  0.201200  1.0  -0.9059
  O  O2311  1  0.690700  0.864900  0.246800  1.0  -0.8026
  O  O2312  1  0.702900  0.865400  0.300400  1.0  -0.863
  O  O2313  1  0.663500  0.842700  0.281900  1.0  -0.9671
  O  O2314  1  0.663200  0.971700  0.214100  1.0  -0.82
  O  O2315  1  0.669600  0.944600  0.332200  1.0  -0.8154
  O  O2316  1  0.618000  0.973400  0.170000  1.0  -0.7742
  O  O2317  1  0.670500  0.893500  0.282900  1.0  -0.8192
  O  O2318  1  0.633900  0.926600  0.300400  1.0  -0.9111
  O  O2319  1  0.658700  0.969500  0.288300  1.0  -0.8586
  O  O2320  1  0.627500  0.972100  0.321700  1.0  -0.8585
  O  O2321  1  0.873900  0.419100  0.750400  1.0  -0.8055
  O  O2322  1  0.887300  0.385900  0.787000  1.0  -0.9654
  O  O2323  1  0.840900  0.398300  0.781300  1.0  -0.8008
  O  O2324  1  0.871200  0.434100  0.798800  1.0  -0.9041
  O  O2325  1  0.809300  0.364900  0.753200  1.0  -0.8032
  O  O2326  1  0.797100  0.365400  0.699600  1.0  -0.8649
  O  O2327  1  0.836500  0.342700  0.718100  1.0  -0.9663
  O  O2328  1  0.836800  0.471700  0.785900  1.0  -0.8213
  O  O2329  1  0.830400  0.444600  0.667800  1.0  -0.8152
  O  O2330  1  0.882000  0.473400  0.830000  1.0  -0.7717
  O  O2331  1  0.829500  0.393500  0.717100  1.0  -0.8215
  O  O2332  1  0.866100  0.426600  0.699600  1.0  -0.913
  O  O2333  1  0.841300  0.469500  0.711700  1.0  -0.8581
  O  O2334  1  0.872500  0.472100  0.678300  1.0  -0.8539
  O  O2335  1  0.873900  0.919100  0.250400  1.0  -0.8055
  O  O2336  1  0.887300  0.885900  0.287000  1.0  -0.9654
  O  O2337  1  0.840900  0.898300  0.281300  1.0  -0.8008
  O  O2338  1  0.871200  0.934100  0.298800  1.0  -0.9041
  O  O2339  1  0.809300  0.864900  0.253200  1.0  -0.8032
  O  O2340  1  0.797100  0.865400  0.199600  1.0  -0.8649
  O  O2341  1  0.836500  0.842700  0.218100  1.0  -0.9663
  O  O2342  1  0.836800  0.971700  0.285900  1.0  -0.8213
  O  O2343  1  0.830400  0.944600  0.167800  1.0  -0.8152
  O  O2344  1  0.882000  0.973400  0.330000  1.0  -0.7717
  O  O2345  1  0.829500  0.893500  0.217100  1.0  -0.8215
  O  O2346  1  0.866100  0.926600  0.199600  1.0  -0.913
  O  O2347  1  0.841300  0.969500  0.211700  1.0  -0.8581
  O  O2348  1  0.872500  0.972100  0.178300  1.0  -0.8539
  O  O2349  1  0.373900  0.419100  0.250400  1.0  -0.8055
  O  O2350  1  0.387300  0.385900  0.287000  1.0  -0.9654
  O  O2351  1  0.340900  0.398300  0.281300  1.0  -0.8008
  O  O2352  1  0.371200  0.434100  0.298800  1.0  -0.9041
  O  O2353  1  0.309300  0.364900  0.253200  1.0  -0.8032
  O  O2354  1  0.297100  0.365400  0.199600  1.0  -0.8649
  O  O2355  1  0.336500  0.342700  0.218100  1.0  -0.9663
  O  O2356  1  0.336800  0.471700  0.285900  1.0  -0.8213
  O  O2357  1  0.330400  0.444600  0.167800  1.0  -0.8152
  O  O2358  1  0.382000  0.473400  0.330000  1.0  -0.7717
  O  O2359  1  0.329500  0.393500  0.217100  1.0  -0.8215
  O  O2360  1  0.366100  0.426600  0.199600  1.0  -0.913
  O  O2361  1  0.341300  0.469500  0.211700  1.0  -0.8581
  O  O2362  1  0.372500  0.472100  0.178300  1.0  -0.8539
  O  O2363  1  0.373900  0.919100  0.750400  1.0  -0.8055
  O  O2364  1  0.387300  0.885900  0.787000  1.0  -0.9654
  O  O2365  1  0.340900  0.898300  0.781300  1.0  -0.8008
  O  O2366  1  0.371200  0.934100  0.798800  1.0  -0.9041
  O  O2367  1  0.309300  0.864900  0.753200  1.0  -0.8032
  O  O2368  1  0.297100  0.865400  0.699600  1.0  -0.8649
  O  O2369  1  0.336500  0.842700  0.718100  1.0  -0.9663
  O  O2370  1  0.336800  0.971700  0.785900  1.0  -0.8213
  O  O2371  1  0.330400  0.944600  0.667800  1.0  -0.8152
  O  O2372  1  0.382000  0.973400  0.830000  1.0  -0.7717
  O  O2373  1  0.329500  0.893500  0.717100  1.0  -0.8215
  O  O2374  1  0.366100  0.926600  0.699600  1.0  -0.913
  O  O2375  1  0.341300  0.969500  0.711700  1.0  -0.8581
  O  O2376  1  0.372500  0.972100  0.678300  1.0  -0.8539
  O  O2377  1  0.126100  0.580900  0.750400  1.0  -0.8048
  O  O2378  1  0.112700  0.614100  0.787000  1.0  -0.967
  O  O2379  1  0.159100  0.601700  0.781300  1.0  -0.8
  O  O2380  1  0.128800  0.565900  0.798800  1.0  -0.9066
  O  O2381  1  0.190700  0.635100  0.753200  1.0  -0.8029
  O  O2382  1  0.202900  0.634600  0.699600  1.0  -0.8634
  O  O2383  1  0.163500  0.657300  0.718100  1.0  -0.968
  O  O2384  1  0.163200  0.528300  0.785900  1.0  -0.8211
  O  O2385  1  0.169600  0.555400  0.667800  1.0  -0.8149
  O  O2386  1  0.118000  0.526600  0.830000  1.0  -0.7741
  O  O2387  1  0.170500  0.606500  0.717100  1.0  -0.8205
  O  O2388  1  0.133900  0.573400  0.699600  1.0  -0.9115
  O  O2389  1  0.158700  0.530500  0.711700  1.0  -0.8581
  O  O2390  1  0.127500  0.527900  0.678300  1.0  -0.8571
  O  O2391  1  0.126100  0.080900  0.250400  1.0  -0.8048
  O  O2392  1  0.112700  0.114100  0.287000  1.0  -0.967
  O  O2393  1  0.159100  0.101700  0.281300  1.0  -0.8
  O  O2394  1  0.128800  0.065900  0.298800  1.0  -0.9066
  O  O2395  1  0.190700  0.135100  0.253200  1.0  -0.8029
  O  O2396  1  0.202900  0.134600  0.199600  1.0  -0.8634
  O  O2397  1  0.163500  0.157300  0.218100  1.0  -0.968
  O  O2398  1  0.163200  0.028300  0.285900  1.0  -0.8211
  O  O2399  1  0.169600  0.055400  0.167800  1.0  -0.8149
  O  O2400  1  0.118000  0.026600  0.330000  1.0  -0.7741
  O  O2401  1  0.170500  0.106500  0.217100  1.0  -0.8205
  O  O2402  1  0.133900  0.073400  0.199600  1.0  -0.9115
  O  O2403  1  0.158700  0.030500  0.211700  1.0  -0.8581
  O  O2404  1  0.127500  0.027900  0.178300  1.0  -0.8571
  O  O2405  1  0.626100  0.580900  0.250400  1.0  -0.8048
  O  O2406  1  0.612700  0.614100  0.287000  1.0  -0.967
  O  O2407  1  0.659100  0.601700  0.281300  1.0  -0.8
  O  O2408  1  0.628800  0.565900  0.298800  1.0  -0.9066
  O  O2409  1  0.690700  0.635100  0.253200  1.0  -0.8029
  O  O2410  1  0.702900  0.634600  0.199600  1.0  -0.8634
  O  O2411  1  0.663500  0.657300  0.218100  1.0  -0.968
  O  O2412  1  0.663200  0.528300  0.285900  1.0  -0.8211
  O  O2413  1  0.669600  0.555400  0.167800  1.0  -0.8149
  O  O2414  1  0.618000  0.526600  0.330000  1.0  -0.7741
  O  O2415  1  0.670500  0.606500  0.217100  1.0  -0.8205
  O  O2416  1  0.633900  0.573400  0.199600  1.0  -0.9115
  O  O2417  1  0.658700  0.530500  0.211700  1.0  -0.8581
  O  O2418  1  0.627500  0.527900  0.178300  1.0  -0.8571
  O  O2419  1  0.626100  0.080900  0.750400  1.0  -0.8048
  O  O2420  1  0.612700  0.114100  0.787000  1.0  -0.967
  O  O2421  1  0.659100  0.101700  0.781300  1.0  -0.8
  O  O2422  1  0.628800  0.065900  0.798800  1.0  -0.9066
  O  O2423  1  0.690700  0.135100  0.753200  1.0  -0.8029
  O  O2424  1  0.702900  0.134600  0.699600  1.0  -0.8634
  O  O2425  1  0.663500  0.157300  0.718100  1.0  -0.968
  O  O2426  1  0.663200  0.028300  0.785900  1.0  -0.8211
  O  O2427  1  0.669600  0.055400  0.667800  1.0  -0.8149
  O  O2428  1  0.618000  0.026600  0.830000  1.0  -0.7741
  O  O2429  1  0.670500  0.106500  0.717100  1.0  -0.8205
  O  O2430  1  0.633900  0.073400  0.699600  1.0  -0.9115
  O  O2431  1  0.658700  0.030500  0.711700  1.0  -0.8581
  O  O2432  1  0.627500  0.027900  0.678300  1.0  -0.8571
  O  O2433  1  0.580900  0.750400  0.126100  1.0  -0.8052
  O  O2434  1  0.614100  0.787000  0.112700  1.0  -0.9714
  O  O2435  1  0.601700  0.781300  0.159100  1.0  -0.803
  O  O2436  1  0.565900  0.798800  0.128800  1.0  -0.9039
  O  O2437  1  0.635100  0.753200  0.190700  1.0  -0.8021
  O  O2438  1  0.634600  0.699600  0.202900  1.0  -0.8652
  O  O2439  1  0.657300  0.718100  0.163500  1.0  -0.9652
  O  O2440  1  0.528300  0.785900  0.163200  1.0  -0.8198
  O  O2441  1  0.555400  0.667800  0.169600  1.0  -0.8139
  O  O2442  1  0.526600  0.830000  0.118000  1.0  -0.7708
  O  O2443  1  0.606500  0.717100  0.170500  1.0  -0.8184
  O  O2444  1  0.573400  0.699600  0.133900  1.0  -0.9133
  O  O2445  1  0.530500  0.711700  0.158700  1.0  -0.8581
  O  O2446  1  0.527900  0.678300  0.127500  1.0  -0.8598
  O  O2447  1  0.580900  0.250400  0.626100  1.0  -0.8052
  O  O2448  1  0.614100  0.287000  0.612700  1.0  -0.9714
  O  O2449  1  0.601700  0.281300  0.659100  1.0  -0.803
  O  O2450  1  0.565900  0.298800  0.628800  1.0  -0.9039
  O  O2451  1  0.635100  0.253200  0.690700  1.0  -0.8021
  O  O2452  1  0.634600  0.199600  0.702900  1.0  -0.8652
  O  O2453  1  0.657300  0.218100  0.663500  1.0  -0.9652
  O  O2454  1  0.528300  0.285900  0.663200  1.0  -0.8198
  O  O2455  1  0.555400  0.167800  0.669600  1.0  -0.8139
  O  O2456  1  0.526600  0.330000  0.618000  1.0  -0.7708
  O  O2457  1  0.606500  0.217100  0.670500  1.0  -0.8184
  O  O2458  1  0.573400  0.199600  0.633900  1.0  -0.9133
  O  O2459  1  0.530500  0.211700  0.658700  1.0  -0.8581
  O  O2460  1  0.527900  0.178300  0.627500  1.0  -0.8598
  O  O2461  1  0.080900  0.750400  0.626100  1.0  -0.8052
  O  O2462  1  0.114100  0.787000  0.612700  1.0  -0.9714
  O  O2463  1  0.101700  0.781300  0.659100  1.0  -0.803
  O  O2464  1  0.065900  0.798800  0.628800  1.0  -0.9039
  O  O2465  1  0.135100  0.753200  0.690700  1.0  -0.8021
  O  O2466  1  0.134600  0.699600  0.702900  1.0  -0.8652
  O  O2467  1  0.157300  0.718100  0.663500  1.0  -0.9652
  O  O2468  1  0.028300  0.785900  0.663200  1.0  -0.8198
  O  O2469  1  0.055400  0.667800  0.669600  1.0  -0.8139
  O  O2470  1  0.026600  0.830000  0.618000  1.0  -0.7708
  O  O2471  1  0.106500  0.717100  0.670500  1.0  -0.8184
  O  O2472  1  0.073400  0.699600  0.633900  1.0  -0.9133
  O  O2473  1  0.030500  0.711700  0.658700  1.0  -0.8581
  O  O2474  1  0.027900  0.678300  0.627500  1.0  -0.8598
  O  O2475  1  0.080900  0.250400  0.126100  1.0  -0.8052
  O  O2476  1  0.114100  0.287000  0.112700  1.0  -0.9714
  O  O2477  1  0.101700  0.281300  0.159100  1.0  -0.803
  O  O2478  1  0.065900  0.298800  0.128800  1.0  -0.9039
  O  O2479  1  0.135100  0.253200  0.190700  1.0  -0.8021
  O  O2480  1  0.134600  0.199600  0.202900  1.0  -0.8652
  O  O2481  1  0.157300  0.218100  0.163500  1.0  -0.9652
  O  O2482  1  0.028300  0.285900  0.163200  1.0  -0.8198
  O  O2483  1  0.055400  0.167800  0.169600  1.0  -0.8139
  O  O2484  1  0.026600  0.330000  0.118000  1.0  -0.7708
  O  O2485  1  0.106500  0.217100  0.170500  1.0  -0.8184
  O  O2486  1  0.073400  0.199600  0.133900  1.0  -0.9133
  O  O2487  1  0.030500  0.211700  0.158700  1.0  -0.8581
  O  O2488  1  0.027900  0.178300  0.127500  1.0  -0.8598
  O  O2489  1  0.419100  0.750400  0.873900  1.0  -0.8055
  O  O2490  1  0.385900  0.787000  0.887300  1.0  -0.9692
  O  O2491  1  0.398300  0.781300  0.840900  1.0  -0.8019
  O  O2492  1  0.434100  0.798800  0.871200  1.0  -0.9052
  O  O2493  1  0.364900  0.753200  0.809300  1.0  -0.804
  O  O2494  1  0.365400  0.699600  0.797100  1.0  -0.864
  O  O2495  1  0.342700  0.718100  0.836500  1.0  -0.9653
  O  O2496  1  0.471700  0.785900  0.836800  1.0  -0.8185
  O  O2497  1  0.444600  0.667800  0.830400  1.0  -0.8137
  O  O2498  1  0.473400  0.830000  0.882000  1.0  -0.7717
  O  O2499  1  0.393500  0.717100  0.829500  1.0  -0.8198
  O  O2500  1  0.426600  0.699600  0.866100  1.0  -0.9143
  O  O2501  1  0.469500  0.711700  0.841300  1.0  -0.8575
  O  O2502  1  0.472100  0.678300  0.872500  1.0  -0.857
  O  O2503  1  0.419100  0.250400  0.373900  1.0  -0.8055
  O  O2504  1  0.385900  0.287000  0.387300  1.0  -0.9692
  O  O2505  1  0.398300  0.281300  0.340900  1.0  -0.8019
  O  O2506  1  0.434100  0.298800  0.371200  1.0  -0.9052
  O  O2507  1  0.364900  0.253200  0.309300  1.0  -0.804
  O  O2508  1  0.365400  0.199600  0.297100  1.0  -0.864
  O  O2509  1  0.342700  0.218100  0.336500  1.0  -0.9653
  O  O2510  1  0.471700  0.285900  0.336800  1.0  -0.8185
  O  O2511  1  0.444600  0.167800  0.330400  1.0  -0.8137
  O  O2512  1  0.473400  0.330000  0.382000  1.0  -0.7717
  O  O2513  1  0.393500  0.217100  0.329500  1.0  -0.8198
  O  O2514  1  0.426600  0.199600  0.366100  1.0  -0.9143
  O  O2515  1  0.469500  0.211700  0.341300  1.0  -0.8575
  O  O2516  1  0.472100  0.178300  0.372500  1.0  -0.857
  O  O2517  1  0.919100  0.750400  0.373900  1.0  -0.8055
  O  O2518  1  0.885900  0.787000  0.387300  1.0  -0.9692
  O  O2519  1  0.898300  0.781300  0.340900  1.0  -0.8019
  O  O2520  1  0.934100  0.798800  0.371200  1.0  -0.9052
  O  O2521  1  0.864900  0.753200  0.309300  1.0  -0.804
  O  O2522  1  0.865400  0.699600  0.297100  1.0  -0.864
  O  O2523  1  0.842700  0.718100  0.336500  1.0  -0.9653
  O  O2524  1  0.971700  0.785900  0.336800  1.0  -0.8185
  O  O2525  1  0.944600  0.667800  0.330400  1.0  -0.8137
  O  O2526  1  0.973400  0.830000  0.382000  1.0  -0.7717
  O  O2527  1  0.893500  0.717100  0.329500  1.0  -0.8198
  O  O2528  1  0.926600  0.699600  0.366100  1.0  -0.9143
  O  O2529  1  0.969500  0.711700  0.341300  1.0  -0.8575
  O  O2530  1  0.972100  0.678300  0.372500  1.0  -0.857
  O  O2531  1  0.919100  0.250400  0.873900  1.0  -0.8055
  O  O2532  1  0.885900  0.287000  0.887300  1.0  -0.9692
  O  O2533  1  0.898300  0.281300  0.840900  1.0  -0.8019
  O  O2534  1  0.934100  0.298800  0.871200  1.0  -0.9052
  O  O2535  1  0.864900  0.253200  0.809300  1.0  -0.804
  O  O2536  1  0.865400  0.199600  0.797100  1.0  -0.864
  O  O2537  1  0.842700  0.218100  0.836500  1.0  -0.9653
  O  O2538  1  0.971700  0.285900  0.836800  1.0  -0.8185
  O  O2539  1  0.944600  0.167800  0.830400  1.0  -0.8137
  O  O2540  1  0.973400  0.330000  0.882000  1.0  -0.7717
  O  O2541  1  0.893500  0.217100  0.829500  1.0  -0.8198
  O  O2542  1  0.926600  0.199600  0.866100  1.0  -0.9143
  O  O2543  1  0.969500  0.211700  0.841300  1.0  -0.8575
  O  O2544  1  0.972100  0.178300  0.872500  1.0  -0.857
  O  O2545  1  0.419100  0.249600  0.126100  1.0  -0.805
  O  O2546  1  0.385900  0.213000  0.112700  1.0  -0.969
  O  O2547  1  0.398300  0.218700  0.159100  1.0  -0.8033
  O  O2548  1  0.434100  0.201200  0.128800  1.0  -0.9036
  O  O2549  1  0.364900  0.246800  0.190700  1.0  -0.8023
  O  O2550  1  0.365400  0.300400  0.202900  1.0  -0.8661
  O  O2551  1  0.342700  0.281900  0.163500  1.0  -0.9657
  O  O2552  1  0.471700  0.214100  0.163200  1.0  -0.8174
  O  O2553  1  0.444600  0.332200  0.169600  1.0  -0.8149
  O  O2554  1  0.473400  0.170000  0.118000  1.0  -0.7695
  O  O2555  1  0.393500  0.282900  0.170500  1.0  -0.8193
  O  O2556  1  0.426600  0.300400  0.133900  1.0  -0.9129
  O  O2557  1  0.469500  0.288300  0.158700  1.0  -0.8584
  O  O2558  1  0.472100  0.321700  0.127500  1.0  -0.8602
  O  O2559  1  0.419100  0.749600  0.626100  1.0  -0.805
  O  O2560  1  0.385900  0.713000  0.612700  1.0  -0.969
  O  O2561  1  0.398300  0.718700  0.659100  1.0  -0.8033
  O  O2562  1  0.434100  0.701200  0.628800  1.0  -0.9036
  O  O2563  1  0.364900  0.746800  0.690700  1.0  -0.8023
  O  O2564  1  0.365400  0.800400  0.702900  1.0  -0.8661
  O  O2565  1  0.342700  0.781900  0.663500  1.0  -0.9657
  O  O2566  1  0.471700  0.714100  0.663200  1.0  -0.8174
  O  O2567  1  0.444600  0.832200  0.669600  1.0  -0.8149
  O  O2568  1  0.473400  0.670000  0.618000  1.0  -0.7695
  O  O2569  1  0.393500  0.782900  0.670500  1.0  -0.8193
  O  O2570  1  0.426600  0.800400  0.633900  1.0  -0.9129
  O  O2571  1  0.469500  0.788300  0.658700  1.0  -0.8584
  O  O2572  1  0.472100  0.821700  0.627500  1.0  -0.8602
  O  O2573  1  0.919100  0.249600  0.626100  1.0  -0.805
  O  O2574  1  0.885900  0.213000  0.612700  1.0  -0.969
  O  O2575  1  0.898300  0.218700  0.659100  1.0  -0.8033
  O  O2576  1  0.934100  0.201200  0.628800  1.0  -0.9036
  O  O2577  1  0.864900  0.246800  0.690700  1.0  -0.8023
  O  O2578  1  0.865400  0.300400  0.702900  1.0  -0.8661
  O  O2579  1  0.842700  0.281900  0.663500  1.0  -0.9657
  O  O2580  1  0.971700  0.214100  0.663200  1.0  -0.8174
  O  O2581  1  0.944600  0.332200  0.669600  1.0  -0.8149
  O  O2582  1  0.973400  0.170000  0.618000  1.0  -0.7695
  O  O2583  1  0.893500  0.282900  0.670500  1.0  -0.8193
  O  O2584  1  0.926600  0.300400  0.633900  1.0  -0.9129
  O  O2585  1  0.969500  0.288300  0.658700  1.0  -0.8584
  O  O2586  1  0.972100  0.321700  0.627500  1.0  -0.8602
  O  O2587  1  0.919100  0.749600  0.126100  1.0  -0.805
  O  O2588  1  0.885900  0.713000  0.112700  1.0  -0.969
  O  O2589  1  0.898300  0.718700  0.159100  1.0  -0.8033
  O  O2590  1  0.934100  0.701200  0.128800  1.0  -0.9036
  O  O2591  1  0.864900  0.746800  0.190700  1.0  -0.8023
  O  O2592  1  0.865400  0.800400  0.202900  1.0  -0.8661
  O  O2593  1  0.842700  0.781900  0.163500  1.0  -0.9657
  O  O2594  1  0.971700  0.714100  0.163200  1.0  -0.8174
  O  O2595  1  0.944600  0.832200  0.169600  1.0  -0.8149
  O  O2596  1  0.973400  0.670000  0.118000  1.0  -0.7695
  O  O2597  1  0.893500  0.782900  0.170500  1.0  -0.8193
  O  O2598  1  0.926600  0.800400  0.133900  1.0  -0.9129
  O  O2599  1  0.969500  0.788300  0.158700  1.0  -0.8584
  O  O2600  1  0.972100  0.821700  0.127500  1.0  -0.8602
  O  O2601  1  0.580900  0.249600  0.873900  1.0  -0.8064
  O  O2602  1  0.614100  0.213000  0.887300  1.0  -0.9702
  O  O2603  1  0.601700  0.218700  0.840900  1.0  -0.8016
  O  O2604  1  0.565900  0.201200  0.871200  1.0  -0.9056
  O  O2605  1  0.635100  0.246800  0.809300  1.0  -0.8045
  O  O2606  1  0.634600  0.300400  0.797100  1.0  -0.8632
  O  O2607  1  0.657300  0.281900  0.836500  1.0  -0.9654
  O  O2608  1  0.528300  0.214100  0.836800  1.0  -0.8188
  O  O2609  1  0.555400  0.332200  0.830400  1.0  -0.8131
  O  O2610  1  0.526600  0.170000  0.882000  1.0  -0.7707
  O  O2611  1  0.606500  0.282900  0.829500  1.0  -0.8179
  O  O2612  1  0.573400  0.300400  0.866100  1.0  -0.9139
  O  O2613  1  0.530500  0.288300  0.841300  1.0  -0.8579
  O  O2614  1  0.527900  0.321700  0.872500  1.0  -0.8561
  O  O2615  1  0.580900  0.749600  0.373900  1.0  -0.8064
  O  O2616  1  0.614100  0.713000  0.387300  1.0  -0.9702
  O  O2617  1  0.601700  0.718700  0.340900  1.0  -0.8016
  O  O2618  1  0.565900  0.701200  0.371200  1.0  -0.9056
  O  O2619  1  0.635100  0.746800  0.309300  1.0  -0.8045
  O  O2620  1  0.634600  0.800400  0.297100  1.0  -0.8632
  O  O2621  1  0.657300  0.781900  0.336500  1.0  -0.9654
  O  O2622  1  0.528300  0.714100  0.336800  1.0  -0.8188
  O  O2623  1  0.555400  0.832200  0.330400  1.0  -0.8131
  O  O2624  1  0.526600  0.670000  0.382000  1.0  -0.7707
  O  O2625  1  0.606500  0.782900  0.329500  1.0  -0.8179
  O  O2626  1  0.573400  0.800400  0.366100  1.0  -0.9139
  O  O2627  1  0.530500  0.788300  0.341300  1.0  -0.8579
  O  O2628  1  0.527900  0.821700  0.372500  1.0  -0.8561
  O  O2629  1  0.080900  0.249600  0.373900  1.0  -0.8064
  O  O2630  1  0.114100  0.213000  0.387300  1.0  -0.9702
  O  O2631  1  0.101700  0.218700  0.340900  1.0  -0.8016
  O  O2632  1  0.065900  0.201200  0.371200  1.0  -0.9056
  O  O2633  1  0.135100  0.246800  0.309300  1.0  -0.8045
  O  O2634  1  0.134600  0.300400  0.297100  1.0  -0.8632
  O  O2635  1  0.157300  0.281900  0.336500  1.0  -0.9654
  O  O2636  1  0.028300  0.214100  0.336800  1.0  -0.8188
  O  O2637  1  0.055400  0.332200  0.330400  1.0  -0.8131
  O  O2638  1  0.026600  0.170000  0.382000  1.0  -0.7707
  O  O2639  1  0.106500  0.282900  0.329500  1.0  -0.8179
  O  O2640  1  0.073400  0.300400  0.366100  1.0  -0.9139
  O  O2641  1  0.030500  0.288300  0.341300  1.0  -0.8579
  O  O2642  1  0.027900  0.321700  0.372500  1.0  -0.8561
  O  O2643  1  0.080900  0.749600  0.873900  1.0  -0.8064
  O  O2644  1  0.114100  0.713000  0.887300  1.0  -0.9702
  O  O2645  1  0.101700  0.718700  0.840900  1.0  -0.8016
  O  O2646  1  0.065900  0.701200  0.871200  1.0  -0.9056
  O  O2647  1  0.135100  0.746800  0.809300  1.0  -0.8045
  O  O2648  1  0.134600  0.800400  0.797100  1.0  -0.8632
  O  O2649  1  0.157300  0.781900  0.836500  1.0  -0.9654
  O  O2650  1  0.028300  0.714100  0.836800  1.0  -0.8188
  O  O2651  1  0.055400  0.832200  0.830400  1.0  -0.8131
  O  O2652  1  0.026600  0.670000  0.882000  1.0  -0.7707
  O  O2653  1  0.106500  0.782900  0.829500  1.0  -0.8179
  O  O2654  1  0.073400  0.800400  0.866100  1.0  -0.9139
  O  O2655  1  0.030500  0.788300  0.841300  1.0  -0.8579
  O  O2656  1  0.027900  0.821700  0.872500  1.0  -0.8561
  O  O2657  1  0.750400  0.873900  0.419100  1.0  -0.8077
  O  O2658  1  0.787000  0.887300  0.385900  1.0  -0.9702
  O  O2659  1  0.781300  0.840900  0.398300  1.0  -0.8026
  O  O2660  1  0.798800  0.871200  0.434100  1.0  -0.9056
  O  O2661  1  0.753200  0.809300  0.364900  1.0  -0.804
  O  O2662  1  0.699600  0.797100  0.365400  1.0  -0.8643
  O  O2663  1  0.718100  0.836500  0.342700  1.0  -0.9652
  O  O2664  1  0.785900  0.836800  0.471700  1.0  -0.8178
  O  O2665  1  0.667800  0.830400  0.444600  1.0  -0.8155
  O  O2666  1  0.830000  0.882000  0.473400  1.0  -0.7768
  O  O2667  1  0.717100  0.829500  0.393500  1.0  -0.8219
  O  O2668  1  0.699600  0.866100  0.426600  1.0  -0.9111
  O  O2669  1  0.711700  0.841300  0.469500  1.0  -0.8568
  O  O2670  1  0.678300  0.872500  0.472100  1.0  -0.8625
  O  O2671  1  0.750400  0.373900  0.919100  1.0  -0.8077
  O  O2672  1  0.787000  0.387300  0.885900  1.0  -0.9702
  O  O2673  1  0.781300  0.340900  0.898300  1.0  -0.8026
  O  O2674  1  0.798800  0.371200  0.934100  1.0  -0.9056
  O  O2675  1  0.753200  0.309300  0.864900  1.0  -0.804
  O  O2676  1  0.699600  0.297100  0.865400  1.0  -0.8643
  O  O2677  1  0.718100  0.336500  0.842700  1.0  -0.9652
  O  O2678  1  0.785900  0.336800  0.971700  1.0  -0.8178
  O  O2679  1  0.667800  0.330400  0.944600  1.0  -0.8155
  O  O2680  1  0.830000  0.382000  0.973400  1.0  -0.7768
  O  O2681  1  0.717100  0.329500  0.893500  1.0  -0.8219
  O  O2682  1  0.699600  0.366100  0.926600  1.0  -0.9111
  O  O2683  1  0.711700  0.341300  0.969500  1.0  -0.8568
  O  O2684  1  0.678300  0.372500  0.972100  1.0  -0.8625
  O  O2685  1  0.250400  0.873900  0.919100  1.0  -0.8077
  O  O2686  1  0.287000  0.887300  0.885900  1.0  -0.9702
  O  O2687  1  0.281300  0.840900  0.898300  1.0  -0.8026
  O  O2688  1  0.298800  0.871200  0.934100  1.0  -0.9056
  O  O2689  1  0.253200  0.809300  0.864900  1.0  -0.804
  O  O2690  1  0.199600  0.797100  0.865400  1.0  -0.8643
  O  O2691  1  0.218100  0.836500  0.842700  1.0  -0.9652
  O  O2692  1  0.285900  0.836800  0.971700  1.0  -0.8178
  O  O2693  1  0.167800  0.830400  0.944600  1.0  -0.8155
  O  O2694  1  0.330000  0.882000  0.973400  1.0  -0.7768
  O  O2695  1  0.217100  0.829500  0.893500  1.0  -0.8219
  O  O2696  1  0.199600  0.866100  0.926600  1.0  -0.9111
  O  O2697  1  0.211700  0.841300  0.969500  1.0  -0.8568
  O  O2698  1  0.178300  0.872500  0.972100  1.0  -0.8625
  O  O2699  1  0.250400  0.373900  0.419100  1.0  -0.8077
  O  O2700  1  0.287000  0.387300  0.385900  1.0  -0.9702
  O  O2701  1  0.281300  0.340900  0.398300  1.0  -0.8026
  O  O2702  1  0.298800  0.371200  0.434100  1.0  -0.9056
  O  O2703  1  0.253200  0.309300  0.364900  1.0  -0.804
  O  O2704  1  0.199600  0.297100  0.365400  1.0  -0.8643
  O  O2705  1  0.218100  0.336500  0.342700  1.0  -0.9652
  O  O2706  1  0.285900  0.336800  0.471700  1.0  -0.8178
  O  O2707  1  0.167800  0.330400  0.444600  1.0  -0.8155
  O  O2708  1  0.330000  0.382000  0.473400  1.0  -0.7768
  O  O2709  1  0.217100  0.329500  0.393500  1.0  -0.8219
  O  O2710  1  0.199600  0.366100  0.426600  1.0  -0.9111
  O  O2711  1  0.211700  0.341300  0.469500  1.0  -0.8568
  O  O2712  1  0.178300  0.372500  0.472100  1.0  -0.8625
  O  O2713  1  0.750400  0.126100  0.580900  1.0  -0.8071
  O  O2714  1  0.787000  0.112700  0.614100  1.0  -0.9698
  O  O2715  1  0.781300  0.159100  0.601700  1.0  -0.8026
  O  O2716  1  0.798800  0.128800  0.565900  1.0  -0.9044
  O  O2717  1  0.753200  0.190700  0.635100  1.0  -0.8039
  O  O2718  1  0.699600  0.202900  0.634600  1.0  -0.8639
  O  O2719  1  0.718100  0.163500  0.657300  1.0  -0.9659
  O  O2720  1  0.785900  0.163200  0.528300  1.0  -0.8188
  O  O2721  1  0.667800  0.169600  0.555400  1.0  -0.8151
  O  O2722  1  0.830000  0.118000  0.526600  1.0  -0.7752
  O  O2723  1  0.717100  0.170500  0.606500  1.0  -0.8204
  O  O2724  1  0.699600  0.133900  0.573400  1.0  -0.9108
  O  O2725  1  0.711700  0.158700  0.530500  1.0  -0.8569
  O  O2726  1  0.678300  0.127500  0.527900  1.0  -0.8594
  O  O2727  1  0.750400  0.626100  0.080900  1.0  -0.8071
  O  O2728  1  0.787000  0.612700  0.114100  1.0  -0.9698
  O  O2729  1  0.781300  0.659100  0.101700  1.0  -0.8026
  O  O2730  1  0.798800  0.628800  0.065900  1.0  -0.9044
  O  O2731  1  0.753200  0.690700  0.135100  1.0  -0.8039
  O  O2732  1  0.699600  0.702900  0.134600  1.0  -0.8639
  O  O2733  1  0.718100  0.663500  0.157300  1.0  -0.9659
  O  O2734  1  0.785900  0.663200  0.028300  1.0  -0.8188
  O  O2735  1  0.667800  0.669600  0.055400  1.0  -0.8151
  O  O2736  1  0.830000  0.618000  0.026600  1.0  -0.7752
  O  O2737  1  0.717100  0.670500  0.106500  1.0  -0.8204
  O  O2738  1  0.699600  0.633900  0.073400  1.0  -0.9108
  O  O2739  1  0.711700  0.658700  0.030500  1.0  -0.8569
  O  O2740  1  0.678300  0.627500  0.027900  1.0  -0.8594
  O  O2741  1  0.250400  0.126100  0.080900  1.0  -0.8071
  O  O2742  1  0.287000  0.112700  0.114100  1.0  -0.9698
  O  O2743  1  0.281300  0.159100  0.101700  1.0  -0.8026
  O  O2744  1  0.298800  0.128800  0.065900  1.0  -0.9044
  O  O2745  1  0.253200  0.190700  0.135100  1.0  -0.8039
  O  O2746  1  0.199600  0.202900  0.134600  1.0  -0.8639
  O  O2747  1  0.218100  0.163500  0.157300  1.0  -0.9659
  O  O2748  1  0.285900  0.163200  0.028300  1.0  -0.8188
  O  O2749  1  0.167800  0.169600  0.055400  1.0  -0.8151
  O  O2750  1  0.330000  0.118000  0.026600  1.0  -0.7752
  O  O2751  1  0.217100  0.170500  0.106500  1.0  -0.8204
  O  O2752  1  0.199600  0.133900  0.073400  1.0  -0.9108
  O  O2753  1  0.211700  0.158700  0.030500  1.0  -0.8569
  O  O2754  1  0.178300  0.127500  0.027900  1.0  -0.8594
  O  O2755  1  0.250400  0.626100  0.580900  1.0  -0.8071
  O  O2756  1  0.287000  0.612700  0.614100  1.0  -0.9698
  O  O2757  1  0.281300  0.659100  0.601700  1.0  -0.8026
  O  O2758  1  0.298800  0.628800  0.565900  1.0  -0.9044
  O  O2759  1  0.253200  0.690700  0.635100  1.0  -0.8039
  O  O2760  1  0.199600  0.702900  0.634600  1.0  -0.8639
  O  O2761  1  0.218100  0.663500  0.657300  1.0  -0.9659
  O  O2762  1  0.285900  0.663200  0.528300  1.0  -0.8188
  O  O2763  1  0.167800  0.669600  0.555400  1.0  -0.8151
  O  O2764  1  0.330000  0.618000  0.526600  1.0  -0.7752
  O  O2765  1  0.217100  0.670500  0.606500  1.0  -0.8204
  O  O2766  1  0.199600  0.633900  0.573400  1.0  -0.9108
  O  O2767  1  0.211700  0.658700  0.530500  1.0  -0.8569
  O  O2768  1  0.178300  0.627500  0.527900  1.0  -0.8594
  O  O2769  1  0.249600  0.873900  0.580900  1.0  -0.8079
  O  O2770  1  0.213000  0.887300  0.614100  1.0  -0.9702
  O  O2771  1  0.218700  0.840900  0.601700  1.0  -0.8025
  O  O2772  1  0.201200  0.871200  0.565900  1.0  -0.9062
  O  O2773  1  0.246800  0.809300  0.635100  1.0  -0.8043
  O  O2774  1  0.300400  0.797100  0.634600  1.0  -0.8651
  O  O2775  1  0.281900  0.836500  0.657300  1.0  -0.9671
  O  O2776  1  0.214100  0.836800  0.528300  1.0  -0.8201
  O  O2777  1  0.332200  0.830400  0.555400  1.0  -0.8145
  O  O2778  1  0.170000  0.882000  0.526600  1.0  -0.7756
  O  O2779  1  0.282900  0.829500  0.606500  1.0  -0.8203
  O  O2780  1  0.300400  0.866100  0.573400  1.0  -0.9128
  O  O2781  1  0.288300  0.841300  0.530500  1.0  -0.8562
  O  O2782  1  0.321700  0.872500  0.527900  1.0  -0.8609
  O  O2783  1  0.249600  0.373900  0.080900  1.0  -0.8079
  O  O2784  1  0.213000  0.387300  0.114100  1.0  -0.9702
  O  O2785  1  0.218700  0.340900  0.101700  1.0  -0.8025
  O  O2786  1  0.201200  0.371200  0.065900  1.0  -0.9062
  O  O2787  1  0.246800  0.309300  0.135100  1.0  -0.8043
  O  O2788  1  0.300400  0.297100  0.134600  1.0  -0.8651
  O  O2789  1  0.281900  0.336500  0.157300  1.0  -0.9671
  O  O2790  1  0.214100  0.336800  0.028300  1.0  -0.8201
  O  O2791  1  0.332200  0.330400  0.055400  1.0  -0.8145
  O  O2792  1  0.170000  0.382000  0.026600  1.0  -0.7756
  O  O2793  1  0.282900  0.329500  0.106500  1.0  -0.8203
  O  O2794  1  0.300400  0.366100  0.073400  1.0  -0.9128
  O  O2795  1  0.288300  0.341300  0.030500  1.0  -0.8562
  O  O2796  1  0.321700  0.372500  0.027900  1.0  -0.8609
  O  O2797  1  0.749600  0.873900  0.080900  1.0  -0.8079
  O  O2798  1  0.713000  0.887300  0.114100  1.0  -0.9702
  O  O2799  1  0.718700  0.840900  0.101700  1.0  -0.8025
  O  O2800  1  0.701200  0.871200  0.065900  1.0  -0.9062
  O  O2801  1  0.746800  0.809300  0.135100  1.0  -0.8043
  O  O2802  1  0.800400  0.797100  0.134600  1.0  -0.8651
  O  O2803  1  0.781900  0.836500  0.157300  1.0  -0.9671
  O  O2804  1  0.714100  0.836800  0.028300  1.0  -0.8201
  O  O2805  1  0.832200  0.830400  0.055400  1.0  -0.8145
  O  O2806  1  0.670000  0.882000  0.026600  1.0  -0.7756
  O  O2807  1  0.782900  0.829500  0.106500  1.0  -0.8203
  O  O2808  1  0.800400  0.866100  0.073400  1.0  -0.9128
  O  O2809  1  0.788300  0.841300  0.030500  1.0  -0.8562
  O  O2810  1  0.821700  0.872500  0.027900  1.0  -0.8609
  O  O2811  1  0.749600  0.373900  0.580900  1.0  -0.8079
  O  O2812  1  0.713000  0.387300  0.614100  1.0  -0.9702
  O  O2813  1  0.718700  0.340900  0.601700  1.0  -0.8025
  O  O2814  1  0.701200  0.371200  0.565900  1.0  -0.9062
  O  O2815  1  0.746800  0.309300  0.635100  1.0  -0.8043
  O  O2816  1  0.800400  0.297100  0.634600  1.0  -0.8651
  O  O2817  1  0.781900  0.336500  0.657300  1.0  -0.9671
  O  O2818  1  0.714100  0.336800  0.528300  1.0  -0.8201
  O  O2819  1  0.832200  0.330400  0.555400  1.0  -0.8145
  O  O2820  1  0.670000  0.382000  0.526600  1.0  -0.7756
  O  O2821  1  0.782900  0.329500  0.606500  1.0  -0.8203
  O  O2822  1  0.800400  0.366100  0.573400  1.0  -0.9128
  O  O2823  1  0.788300  0.341300  0.530500  1.0  -0.8562
  O  O2824  1  0.821700  0.372500  0.527900  1.0  -0.8609
  O  O2825  1  0.249600  0.126100  0.419100  1.0  -0.8068
  O  O2826  1  0.213000  0.112700  0.385900  1.0  -0.9692
  O  O2827  1  0.218700  0.159100  0.398300  1.0  -0.8022
  O  O2828  1  0.201200  0.128800  0.434100  1.0  -0.9063
  O  O2829  1  0.246800  0.190700  0.364900  1.0  -0.8036
  O  O2830  1  0.300400  0.202900  0.365400  1.0  -0.8644
  O  O2831  1  0.281900  0.163500  0.342700  1.0  -0.9653
  O  O2832  1  0.214100  0.163200  0.471700  1.0  -0.819
  O  O2833  1  0.332200  0.169600  0.444600  1.0  -0.815
  O  O2834  1  0.170000  0.118000  0.473400  1.0  -0.7733
  O  O2835  1  0.282900  0.170500  0.393500  1.0  -0.8207
  O  O2836  1  0.300400  0.133900  0.426600  1.0  -0.913
  O  O2837  1  0.288300  0.158700  0.469500  1.0  -0.8564
  O  O2838  1  0.321700  0.127500  0.472100  1.0  -0.86
  O  O2839  1  0.249600  0.626100  0.919100  1.0  -0.8068
  O  O2840  1  0.213000  0.612700  0.885900  1.0  -0.9692
  O  O2841  1  0.218700  0.659100  0.898300  1.0  -0.8022
  O  O2842  1  0.201200  0.628800  0.934100  1.0  -0.9063
  O  O2843  1  0.246800  0.690700  0.864900  1.0  -0.8036
  O  O2844  1  0.300400  0.702900  0.865400  1.0  -0.8644
  O  O2845  1  0.281900  0.663500  0.842700  1.0  -0.9653
  O  O2846  1  0.214100  0.663200  0.971700  1.0  -0.819
  O  O2847  1  0.332200  0.669600  0.944600  1.0  -0.815
  O  O2848  1  0.170000  0.618000  0.973400  1.0  -0.7733
  O  O2849  1  0.282900  0.670500  0.893500  1.0  -0.8207
  O  O2850  1  0.300400  0.633900  0.926600  1.0  -0.913
  O  O2851  1  0.288300  0.658700  0.969500  1.0  -0.8564
  O  O2852  1  0.321700  0.627500  0.972100  1.0  -0.86
  O  O2853  1  0.749600  0.126100  0.919100  1.0  -0.8068
  O  O2854  1  0.713000  0.112700  0.885900  1.0  -0.9692
  O  O2855  1  0.718700  0.159100  0.898300  1.0  -0.8022
  O  O2856  1  0.701200  0.128800  0.934100  1.0  -0.9063
  O  O2857  1  0.746800  0.190700  0.864900  1.0  -0.8036
  O  O2858  1  0.800400  0.202900  0.865400  1.0  -0.8644
  O  O2859  1  0.781900  0.163500  0.842700  1.0  -0.9653
  O  O2860  1  0.714100  0.163200  0.971700  1.0  -0.819
  O  O2861  1  0.832200  0.169600  0.944600  1.0  -0.815
  O  O2862  1  0.670000  0.118000  0.973400  1.0  -0.7733
  O  O2863  1  0.782900  0.170500  0.893500  1.0  -0.8207
  O  O2864  1  0.800400  0.133900  0.926600  1.0  -0.913
  O  O2865  1  0.788300  0.158700  0.969500  1.0  -0.8564
  O  O2866  1  0.821700  0.127500  0.972100  1.0  -0.86
  O  O2867  1  0.749600  0.626100  0.419100  1.0  -0.8068
  O  O2868  1  0.713000  0.612700  0.385900  1.0  -0.9692
  O  O2869  1  0.718700  0.659100  0.398300  1.0  -0.8022
  O  O2870  1  0.701200  0.628800  0.434100  1.0  -0.9063
  O  O2871  1  0.746800  0.690700  0.364900  1.0  -0.8036
  O  O2872  1  0.800400  0.702900  0.365400  1.0  -0.8644
  O  O2873  1  0.781900  0.663500  0.342700  1.0  -0.9653
  O  O2874  1  0.714100  0.663200  0.471700  1.0  -0.819
  O  O2875  1  0.832200  0.669600  0.444600  1.0  -0.815
  O  O2876  1  0.670000  0.618000  0.473400  1.0  -0.7733
  O  O2877  1  0.782900  0.670500  0.393500  1.0  -0.8207
  O  O2878  1  0.800400  0.633900  0.426600  1.0  -0.913
  O  O2879  1  0.788300  0.658700  0.469500  1.0  -0.8564
  O  O2880  1  0.821700  0.627500  0.472100  1.0  -0.86
  O  O2881  1  0.919100  0.626100  0.749600  1.0  -0.8061
  O  O2882  1  0.885900  0.612700  0.713000  1.0  -0.9666
  O  O2883  1  0.898300  0.659100  0.718700  1.0  -0.8029
  O  O2884  1  0.934100  0.628800  0.701200  1.0  -0.9077
  O  O2885  1  0.864900  0.690700  0.746800  1.0  -0.8038
  O  O2886  1  0.865400  0.702900  0.800400  1.0  -0.8646
  O  O2887  1  0.842700  0.663500  0.781900  1.0  -0.9657
  O  O2888  1  0.971700  0.663200  0.714100  1.0  -0.8169
  O  O2889  1  0.944600  0.669600  0.832200  1.0  -0.814
  O  O2890  1  0.973400  0.618000  0.670000  1.0  -0.7722
  O  O2891  1  0.893500  0.670500  0.782900  1.0  -0.8186
  O  O2892  1  0.926600  0.633900  0.800400  1.0  -0.9144
  O  O2893  1  0.969500  0.658700  0.788300  1.0  -0.8571
  O  O2894  1  0.972100  0.627500  0.821700  1.0  -0.8603
  O  O2895  1  0.919100  0.126100  0.249600  1.0  -0.8061
  O  O2896  1  0.885900  0.112700  0.213000  1.0  -0.9666
  O  O2897  1  0.898300  0.159100  0.218700  1.0  -0.8029
  O  O2898  1  0.934100  0.128800  0.201200  1.0  -0.9077
  O  O2899  1  0.864900  0.190700  0.246800  1.0  -0.8038
  O  O2900  1  0.865400  0.202900  0.300400  1.0  -0.8646
  O  O2901  1  0.842700  0.163500  0.281900  1.0  -0.9657
  O  O2902  1  0.971700  0.163200  0.214100  1.0  -0.8169
  O  O2903  1  0.944600  0.169600  0.332200  1.0  -0.814
  O  O2904  1  0.973400  0.118000  0.170000  1.0  -0.7722
  O  O2905  1  0.893500  0.170500  0.282900  1.0  -0.8186
  O  O2906  1  0.926600  0.133900  0.300400  1.0  -0.9144
  O  O2907  1  0.969500  0.158700  0.288300  1.0  -0.8571
  O  O2908  1  0.972100  0.127500  0.321700  1.0  -0.8603
  O  O2909  1  0.419100  0.626100  0.249600  1.0  -0.8061
  O  O2910  1  0.385900  0.612700  0.213000  1.0  -0.9666
  O  O2911  1  0.398300  0.659100  0.218700  1.0  -0.8029
  O  O2912  1  0.434100  0.628800  0.201200  1.0  -0.9077
  O  O2913  1  0.364900  0.690700  0.246800  1.0  -0.8038
  O  O2914  1  0.365400  0.702900  0.300400  1.0  -0.8646
  O  O2915  1  0.342700  0.663500  0.281900  1.0  -0.9657
  O  O2916  1  0.471700  0.663200  0.214100  1.0  -0.8169
  O  O2917  1  0.444600  0.669600  0.332200  1.0  -0.814
  O  O2918  1  0.473400  0.618000  0.170000  1.0  -0.7722
  O  O2919  1  0.393500  0.670500  0.282900  1.0  -0.8186
  O  O2920  1  0.426600  0.633900  0.300400  1.0  -0.9144
  O  O2921  1  0.469500  0.658700  0.288300  1.0  -0.8571
  O  O2922  1  0.472100  0.627500  0.321700  1.0  -0.8603
  O  O2923  1  0.419100  0.126100  0.749600  1.0  -0.8061
  O  O2924  1  0.385900  0.112700  0.713000  1.0  -0.9666
  O  O2925  1  0.398300  0.159100  0.718700  1.0  -0.8029
  O  O2926  1  0.434100  0.128800  0.701200  1.0  -0.9077
  O  O2927  1  0.364900  0.190700  0.746800  1.0  -0.8038
  O  O2928  1  0.365400  0.202900  0.800400  1.0  -0.8646
  O  O2929  1  0.342700  0.163500  0.781900  1.0  -0.9657
  O  O2930  1  0.471700  0.163200  0.714100  1.0  -0.8169
  O  O2931  1  0.444600  0.169600  0.832200  1.0  -0.814
  O  O2932  1  0.473400  0.118000  0.670000  1.0  -0.7722
  O  O2933  1  0.393500  0.170500  0.782900  1.0  -0.8186
  O  O2934  1  0.426600  0.133900  0.800400  1.0  -0.9144
  O  O2935  1  0.469500  0.158700  0.788300  1.0  -0.8571
  O  O2936  1  0.472100  0.127500  0.821700  1.0  -0.8603
  O  O2937  1  0.080900  0.373900  0.749600  1.0  -0.8073
  O  O2938  1  0.114100  0.387300  0.713000  1.0  -0.9685
  O  O2939  1  0.101700  0.340900  0.718700  1.0  -0.8027
  O  O2940  1  0.065900  0.371200  0.701200  1.0  -0.9082
  O  O2941  1  0.135100  0.309300  0.746800  1.0  -0.8044
  O  O2942  1  0.134600  0.297100  0.800400  1.0  -0.8643
  O  O2943  1  0.157300  0.336500  0.781900  1.0  -0.9661
  O  O2944  1  0.028300  0.336800  0.714100  1.0  -0.8183
  O  O2945  1  0.055400  0.330400  0.832200  1.0  -0.8137
  O  O2946  1  0.026600  0.382000  0.670000  1.0  -0.7748
  O  O2947  1  0.106500  0.329500  0.782900  1.0  -0.8177
  O  O2948  1  0.073400  0.366100  0.800400  1.0  -0.9144
  O  O2949  1  0.030500  0.341300  0.788300  1.0  -0.8576
  O  O2950  1  0.027900  0.372500  0.821700  1.0  -0.8616
  O  O2951  1  0.080900  0.873900  0.249600  1.0  -0.8073
  O  O2952  1  0.114100  0.887300  0.213000  1.0  -0.9685
  O  O2953  1  0.101700  0.840900  0.218700  1.0  -0.8027
  O  O2954  1  0.065900  0.871200  0.201200  1.0  -0.9082
  O  O2955  1  0.135100  0.809300  0.246800  1.0  -0.8044
  O  O2956  1  0.134600  0.797100  0.300400  1.0  -0.8643
  O  O2957  1  0.157300  0.836500  0.281900  1.0  -0.9661
  O  O2958  1  0.028300  0.836800  0.214100  1.0  -0.8183
  O  O2959  1  0.055400  0.830400  0.332200  1.0  -0.8137
  O  O2960  1  0.026600  0.882000  0.170000  1.0  -0.7748
  O  O2961  1  0.106500  0.829500  0.282900  1.0  -0.8177
  O  O2962  1  0.073400  0.866100  0.300400  1.0  -0.9144
  O  O2963  1  0.030500  0.841300  0.288300  1.0  -0.8576
  O  O2964  1  0.027900  0.872500  0.321700  1.0  -0.8616
  O  O2965  1  0.580900  0.373900  0.249600  1.0  -0.8073
  O  O2966  1  0.614100  0.387300  0.213000  1.0  -0.9685
  O  O2967  1  0.601700  0.340900  0.218700  1.0  -0.8027
  O  O2968  1  0.565900  0.371200  0.201200  1.0  -0.9082
  O  O2969  1  0.635100  0.309300  0.246800  1.0  -0.8044
  O  O2970  1  0.634600  0.297100  0.300400  1.0  -0.8643
  O  O2971  1  0.657300  0.336500  0.281900  1.0  -0.9661
  O  O2972  1  0.528300  0.336800  0.214100  1.0  -0.8183
  O  O2973  1  0.555400  0.330400  0.332200  1.0  -0.8137
  O  O2974  1  0.526600  0.382000  0.170000  1.0  -0.7748
  O  O2975  1  0.606500  0.329500  0.282900  1.0  -0.8177
  O  O2976  1  0.573400  0.366100  0.300400  1.0  -0.9144
  O  O2977  1  0.530500  0.341300  0.288300  1.0  -0.8576
  O  O2978  1  0.527900  0.372500  0.321700  1.0  -0.8616
  O  O2979  1  0.580900  0.873900  0.749600  1.0  -0.8073
  O  O2980  1  0.614100  0.887300  0.713000  1.0  -0.9685
  O  O2981  1  0.601700  0.840900  0.718700  1.0  -0.8027
  O  O2982  1  0.565900  0.871200  0.701200  1.0  -0.9082
  O  O2983  1  0.635100  0.809300  0.746800  1.0  -0.8044
  O  O2984  1  0.634600  0.797100  0.800400  1.0  -0.8643
  O  O2985  1  0.657300  0.836500  0.781900  1.0  -0.9661
  O  O2986  1  0.528300  0.836800  0.714100  1.0  -0.8183
  O  O2987  1  0.555400  0.830400  0.832200  1.0  -0.8137
  O  O2988  1  0.526600  0.882000  0.670000  1.0  -0.7748
  O  O2989  1  0.606500  0.829500  0.782900  1.0  -0.8177
  O  O2990  1  0.573400  0.866100  0.800400  1.0  -0.9144
  O  O2991  1  0.530500  0.841300  0.788300  1.0  -0.8576
  O  O2992  1  0.527900  0.872500  0.821700  1.0  -0.8616
  O  O2993  1  0.080900  0.626100  0.250400  1.0  -0.8067
  O  O2994  1  0.114100  0.612700  0.287000  1.0  -0.9674
  O  O2995  1  0.101700  0.659100  0.281300  1.0  -0.802
  O  O2996  1  0.065900  0.628800  0.298800  1.0  -0.9081
  O  O2997  1  0.135100  0.690700  0.253200  1.0  -0.8037
  O  O2998  1  0.134600  0.702900  0.199600  1.0  -0.8638
  O  O2999  1  0.157300  0.663500  0.218100  1.0  -0.9652
  O  O3000  1  0.028300  0.663200  0.285900  1.0  -0.8191
  O  O3001  1  0.055400  0.669600  0.167800  1.0  -0.8127
  O  O3002  1  0.026600  0.618000  0.330000  1.0  -0.7726
  O  O3003  1  0.106500  0.670500  0.217100  1.0  -0.8188
  O  O3004  1  0.073400  0.633900  0.199600  1.0  -0.9146
  O  O3005  1  0.030500  0.658700  0.211700  1.0  -0.8575
  O  O3006  1  0.027900  0.627500  0.178300  1.0  -0.8593
  O  O3007  1  0.080900  0.126100  0.750400  1.0  -0.8067
  O  O3008  1  0.114100  0.112700  0.787000  1.0  -0.9674
  O  O3009  1  0.101700  0.159100  0.781300  1.0  -0.802
  O  O3010  1  0.065900  0.128800  0.798800  1.0  -0.9081
  O  O3011  1  0.135100  0.190700  0.753200  1.0  -0.8037
  O  O3012  1  0.134600  0.202900  0.699600  1.0  -0.8638
  O  O3013  1  0.157300  0.163500  0.718100  1.0  -0.9652
  O  O3014  1  0.028300  0.163200  0.785900  1.0  -0.8191
  O  O3015  1  0.055400  0.169600  0.667800  1.0  -0.8127
  O  O3016  1  0.026600  0.118000  0.830000  1.0  -0.7726
  O  O3017  1  0.106500  0.170500  0.717100  1.0  -0.8188
  O  O3018  1  0.073400  0.133900  0.699600  1.0  -0.9146
  O  O3019  1  0.030500  0.158700  0.711700  1.0  -0.8575
  O  O3020  1  0.027900  0.127500  0.678300  1.0  -0.8593
  O  O3021  1  0.580900  0.626100  0.750400  1.0  -0.8067
  O  O3022  1  0.614100  0.612700  0.787000  1.0  -0.9674
  O  O3023  1  0.601700  0.659100  0.781300  1.0  -0.802
  O  O3024  1  0.565900  0.628800  0.798800  1.0  -0.9081
  O  O3025  1  0.635100  0.690700  0.753200  1.0  -0.8037
  O  O3026  1  0.634600  0.702900  0.699600  1.0  -0.8638
  O  O3027  1  0.657300  0.663500  0.718100  1.0  -0.9652
  O  O3028  1  0.528300  0.663200  0.785900  1.0  -0.8191
  O  O3029  1  0.555400  0.669600  0.667800  1.0  -0.8127
  O  O3030  1  0.526600  0.618000  0.830000  1.0  -0.7726
  O  O3031  1  0.606500  0.670500  0.717100  1.0  -0.8188
  O  O3032  1  0.573400  0.633900  0.699600  1.0  -0.9146
  O  O3033  1  0.530500  0.658700  0.711700  1.0  -0.8575
  O  O3034  1  0.527900  0.627500  0.678300  1.0  -0.8593
  O  O3035  1  0.580900  0.126100  0.250400  1.0  -0.8067
  O  O3036  1  0.614100  0.112700  0.287000  1.0  -0.9674
  O  O3037  1  0.601700  0.159100  0.281300  1.0  -0.802
  O  O3038  1  0.565900  0.128800  0.298800  1.0  -0.9081
  O  O3039  1  0.635100  0.190700  0.253200  1.0  -0.8037
  O  O3040  1  0.634600  0.202900  0.199600  1.0  -0.8638
  O  O3041  1  0.657300  0.163500  0.218100  1.0  -0.9652
  O  O3042  1  0.528300  0.163200  0.285900  1.0  -0.8191
  O  O3043  1  0.555400  0.169600  0.167800  1.0  -0.8127
  O  O3044  1  0.526600  0.118000  0.330000  1.0  -0.7726
  O  O3045  1  0.606500  0.170500  0.217100  1.0  -0.8188
  O  O3046  1  0.573400  0.133900  0.199600  1.0  -0.9146
  O  O3047  1  0.530500  0.158700  0.211700  1.0  -0.8575
  O  O3048  1  0.527900  0.127500  0.178300  1.0  -0.8593
  O  O3049  1  0.919100  0.373900  0.250400  1.0  -0.8062
  O  O3050  1  0.885900  0.387300  0.287000  1.0  -0.9656
  O  O3051  1  0.898300  0.340900  0.281300  1.0  -0.8025
  O  O3052  1  0.934100  0.371200  0.298800  1.0  -0.9083
  O  O3053  1  0.864900  0.309300  0.253200  1.0  -0.8042
  O  O3054  1  0.865400  0.297100  0.199600  1.0  -0.8651
  O  O3055  1  0.842700  0.336500  0.218100  1.0  -0.966
  O  O3056  1  0.971700  0.336800  0.285900  1.0  -0.8177
  O  O3057  1  0.944600  0.330400  0.167800  1.0  -0.8138
  O  O3058  1  0.973400  0.382000  0.330000  1.0  -0.7733
  O  O3059  1  0.893500  0.329500  0.217100  1.0  -0.8205
  O  O3060  1  0.926600  0.366100  0.199600  1.0  -0.9147
  O  O3061  1  0.969500  0.341300  0.211700  1.0  -0.8573
  O  O3062  1  0.972100  0.372500  0.178300  1.0  -0.8623
  O  O3063  1  0.919100  0.873900  0.750400  1.0  -0.8062
  O  O3064  1  0.885900  0.887300  0.787000  1.0  -0.9656
  O  O3065  1  0.898300  0.840900  0.781300  1.0  -0.8025
  O  O3066  1  0.934100  0.871200  0.798800  1.0  -0.9083
  O  O3067  1  0.864900  0.809300  0.753200  1.0  -0.8042
  O  O3068  1  0.865400  0.797100  0.699600  1.0  -0.8651
  O  O3069  1  0.842700  0.836500  0.718100  1.0  -0.966
  O  O3070  1  0.971700  0.836800  0.785900  1.0  -0.8177
  O  O3071  1  0.944600  0.830400  0.667800  1.0  -0.8138
  O  O3072  1  0.973400  0.882000  0.830000  1.0  -0.7733
  O  O3073  1  0.893500  0.829500  0.717100  1.0  -0.8205
  O  O3074  1  0.926600  0.866100  0.699600  1.0  -0.9147
  O  O3075  1  0.969500  0.841300  0.711700  1.0  -0.8573
  O  O3076  1  0.972100  0.872500  0.678300  1.0  -0.8623
  O  O3077  1  0.419100  0.373900  0.750400  1.0  -0.8062
  O  O3078  1  0.385900  0.387300  0.787000  1.0  -0.9656
  O  O3079  1  0.398300  0.340900  0.781300  1.0  -0.8025
  O  O3080  1  0.434100  0.371200  0.798800  1.0  -0.9083
  O  O3081  1  0.364900  0.309300  0.753200  1.0  -0.8042
  O  O3082  1  0.365400  0.297100  0.699600  1.0  -0.8651
  O  O3083  1  0.342700  0.336500  0.718100  1.0  -0.966
  O  O3084  1  0.471700  0.336800  0.785900  1.0  -0.8177
  O  O3085  1  0.444600  0.330400  0.667800  1.0  -0.8138
  O  O3086  1  0.473400  0.382000  0.830000  1.0  -0.7733
  O  O3087  1  0.393500  0.329500  0.717100  1.0  -0.8205
  O  O3088  1  0.426600  0.366100  0.699600  1.0  -0.9147
  O  O3089  1  0.469500  0.341300  0.711700  1.0  -0.8573
  O  O3090  1  0.472100  0.372500  0.678300  1.0  -0.8623
  O  O3091  1  0.419100  0.873900  0.250400  1.0  -0.8062
  O  O3092  1  0.385900  0.887300  0.287000  1.0  -0.9656
  O  O3093  1  0.398300  0.840900  0.281300  1.0  -0.8025
  O  O3094  1  0.434100  0.871200  0.298800  1.0  -0.9083
  O  O3095  1  0.364900  0.809300  0.253200  1.0  -0.8042
  O  O3096  1  0.365400  0.797100  0.199600  1.0  -0.8651
  O  O3097  1  0.342700  0.836500  0.218100  1.0  -0.966
  O  O3098  1  0.471700  0.836800  0.285900  1.0  -0.8177
  O  O3099  1  0.444600  0.830400  0.167800  1.0  -0.8138
  O  O3100  1  0.473400  0.882000  0.330000  1.0  -0.7733
  O  O3101  1  0.393500  0.829500  0.217100  1.0  -0.8205
  O  O3102  1  0.426600  0.866100  0.199600  1.0  -0.9147
  O  O3103  1  0.469500  0.841300  0.211700  1.0  -0.8573
  O  O3104  1  0.472100  0.872500  0.178300  1.0  -0.8623
  O  O3105  1  0.749600  0.919100  0.626100  1.0  -0.807
  O  O3106  1  0.713000  0.885900  0.612700  1.0  -0.9699
  O  O3107  1  0.718700  0.898300  0.659100  1.0  -0.8032
  O  O3108  1  0.701200  0.934100  0.628800  1.0  -0.9029
  O  O3109  1  0.746800  0.864900  0.690700  1.0  -0.8025
  O  O3110  1  0.800400  0.865400  0.702900  1.0  -0.8662
  O  O3111  1  0.781900  0.842700  0.663500  1.0  -0.9655
  O  O3112  1  0.714100  0.971700  0.663200  1.0  -0.8179
  O  O3113  1  0.832200  0.944600  0.669600  1.0  -0.8154
  O  O3114  1  0.670000  0.973400  0.618000  1.0  -0.7709
  O  O3115  1  0.782900  0.893500  0.670500  1.0  -0.8199
  O  O3116  1  0.800400  0.926600  0.633900  1.0  -0.9114
  O  O3117  1  0.788300  0.969500  0.658700  1.0  -0.8571
  O  O3118  1  0.821700  0.972100  0.627500  1.0  -0.8592
  O  O3119  1  0.749600  0.419100  0.126100  1.0  -0.807
  O  O3120  1  0.713000  0.385900  0.112700  1.0  -0.9699
  O  O3121  1  0.718700  0.398300  0.159100  1.0  -0.8032
  O  O3122  1  0.701200  0.434100  0.128800  1.0  -0.9029
  O  O3123  1  0.746800  0.364900  0.190700  1.0  -0.8025
  O  O3124  1  0.800400  0.365400  0.202900  1.0  -0.8662
  O  O3125  1  0.781900  0.342700  0.163500  1.0  -0.9655
  O  O3126  1  0.714100  0.471700  0.163200  1.0  -0.8179
  O  O3127  1  0.832200  0.444600  0.169600  1.0  -0.8154
  O  O3128  1  0.670000  0.473400  0.118000  1.0  -0.7709
  O  O3129  1  0.782900  0.393500  0.170500  1.0  -0.8199
  O  O3130  1  0.800400  0.426600  0.133900  1.0  -0.9114
  O  O3131  1  0.788300  0.469500  0.158700  1.0  -0.8571
  O  O3132  1  0.821700  0.472100  0.127500  1.0  -0.8592
  O  O3133  1  0.249600  0.919100  0.126100  1.0  -0.807
  O  O3134  1  0.213000  0.885900  0.112700  1.0  -0.9699
  O  O3135  1  0.218700  0.898300  0.159100  1.0  -0.8032
  O  O3136  1  0.201200  0.934100  0.128800  1.0  -0.9029
  O  O3137  1  0.246800  0.864900  0.190700  1.0  -0.8025
  O  O3138  1  0.300400  0.865400  0.202900  1.0  -0.8662
  O  O3139  1  0.281900  0.842700  0.163500  1.0  -0.9655
  O  O3140  1  0.214100  0.971700  0.163200  1.0  -0.8179
  O  O3141  1  0.332200  0.944600  0.169600  1.0  -0.8154
  O  O3142  1  0.170000  0.973400  0.118000  1.0  -0.7709
  O  O3143  1  0.282900  0.893500  0.170500  1.0  -0.8199
  O  O3144  1  0.300400  0.926600  0.133900  1.0  -0.9114
  O  O3145  1  0.288300  0.969500  0.158700  1.0  -0.8571
  O  O3146  1  0.321700  0.972100  0.127500  1.0  -0.8592
  O  O3147  1  0.249600  0.419100  0.626100  1.0  -0.807
  O  O3148  1  0.213000  0.385900  0.612700  1.0  -0.9699
  O  O3149  1  0.218700  0.398300  0.659100  1.0  -0.8032
  O  O3150  1  0.201200  0.434100  0.628800  1.0  -0.9029
  O  O3151  1  0.246800  0.364900  0.690700  1.0  -0.8025
  O  O3152  1  0.300400  0.365400  0.702900  1.0  -0.8662
  O  O3153  1  0.281900  0.342700  0.663500  1.0  -0.9655
  O  O3154  1  0.214100  0.471700  0.663200  1.0  -0.8179
  O  O3155  1  0.332200  0.444600  0.669600  1.0  -0.8154
  O  O3156  1  0.170000  0.473400  0.618000  1.0  -0.7709
  O  O3157  1  0.282900  0.393500  0.670500  1.0  -0.8199
  O  O3158  1  0.300400  0.426600  0.633900  1.0  -0.9114
  O  O3159  1  0.288300  0.469500  0.658700  1.0  -0.8571
  O  O3160  1  0.321700  0.472100  0.627500  1.0  -0.8592
  O  O3161  1  0.749600  0.080900  0.373900  1.0  -0.8075
  O  O3162  1  0.713000  0.114100  0.387300  1.0  -0.9691
  O  O3163  1  0.718700  0.101700  0.340900  1.0  -0.8018
  O  O3164  1  0.701200  0.065900  0.371200  1.0  -0.9049
  O  O3165  1  0.746800  0.135100  0.309300  1.0  -0.8042
  O  O3166  1  0.800400  0.134600  0.297100  1.0  -0.8644
  O  O3167  1  0.781900  0.157300  0.336500  1.0  -0.9667
  O  O3168  1  0.714100  0.028300  0.336800  1.0  -0.8183
  O  O3169  1  0.832200  0.055400  0.330400  1.0  -0.8136
  O  O3170  1  0.670000  0.026600  0.382000  1.0  -0.7737
  O  O3171  1  0.782900  0.106500  0.329500  1.0  -0.8205
  O  O3172  1  0.800400  0.073400  0.366100  1.0  -0.9119
  O  O3173  1  0.788300  0.030500  0.341300  1.0  -0.856
  O  O3174  1  0.821700  0.027900  0.372500  1.0  -0.8553
  O  O3175  1  0.749600  0.580900  0.873900  1.0  -0.8075
  O  O3176  1  0.713000  0.614100  0.887300  1.0  -0.9691
  O  O3177  1  0.718700  0.601700  0.840900  1.0  -0.8018
  O  O3178  1  0.701200  0.565900  0.871200  1.0  -0.9049
  O  O3179  1  0.746800  0.635100  0.809300  1.0  -0.8042
  O  O3180  1  0.800400  0.634600  0.797100  1.0  -0.8644
  O  O3181  1  0.781900  0.657300  0.836500  1.0  -0.9667
  O  O3182  1  0.714100  0.528300  0.836800  1.0  -0.8183
  O  O3183  1  0.832200  0.555400  0.830400  1.0  -0.8136
  O  O3184  1  0.670000  0.526600  0.882000  1.0  -0.7737
  O  O3185  1  0.782900  0.606500  0.829500  1.0  -0.8205
  O  O3186  1  0.800400  0.573400  0.866100  1.0  -0.9119
  O  O3187  1  0.788300  0.530500  0.841300  1.0  -0.856
  O  O3188  1  0.821700  0.527900  0.872500  1.0  -0.8553
  O  O3189  1  0.249600  0.080900  0.873900  1.0  -0.8075
  O  O3190  1  0.213000  0.114100  0.887300  1.0  -0.9691
  O  O3191  1  0.218700  0.101700  0.840900  1.0  -0.8018
  O  O3192  1  0.201200  0.065900  0.871200  1.0  -0.9049
  O  O3193  1  0.246800  0.135100  0.809300  1.0  -0.8042
  O  O3194  1  0.300400  0.134600  0.797100  1.0  -0.8644
  O  O3195  1  0.281900  0.157300  0.836500  1.0  -0.9667
  O  O3196  1  0.214100  0.028300  0.836800  1.0  -0.8183
  O  O3197  1  0.332200  0.055400  0.830400  1.0  -0.8136
  O  O3198  1  0.170000  0.026600  0.882000  1.0  -0.7737
  O  O3199  1  0.282900  0.106500  0.829500  1.0  -0.8205
  O  O3200  1  0.300400  0.073400  0.866100  1.0  -0.9119
  O  O3201  1  0.288300  0.030500  0.841300  1.0  -0.856
  O  O3202  1  0.321700  0.027900  0.872500  1.0  -0.8553
  O  O3203  1  0.249600  0.580900  0.373900  1.0  -0.8075
  O  O3204  1  0.213000  0.614100  0.387300  1.0  -0.9691
  O  O3205  1  0.218700  0.601700  0.340900  1.0  -0.8018
  O  O3206  1  0.201200  0.565900  0.371200  1.0  -0.9049
  O  O3207  1  0.246800  0.635100  0.309300  1.0  -0.8042
  O  O3208  1  0.300400  0.634600  0.297100  1.0  -0.8644
  O  O3209  1  0.281900  0.657300  0.336500  1.0  -0.9667
  O  O3210  1  0.214100  0.528300  0.336800  1.0  -0.8183
  O  O3211  1  0.332200  0.555400  0.330400  1.0  -0.8136
  O  O3212  1  0.170000  0.526600  0.382000  1.0  -0.7737
  O  O3213  1  0.282900  0.606500  0.329500  1.0  -0.8205
  O  O3214  1  0.300400  0.573400  0.366100  1.0  -0.9119
  O  O3215  1  0.288300  0.530500  0.341300  1.0  -0.856
  O  O3216  1  0.321700  0.527900  0.372500  1.0  -0.8553
  O  O3217  1  0.250400  0.080900  0.626100  1.0  -0.807
  O  O3218  1  0.287000  0.114100  0.612700  1.0  -0.9691
  O  O3219  1  0.281300  0.101700  0.659100  1.0  -0.8034
  O  O3220  1  0.298800  0.065900  0.628800  1.0  -0.9023
  O  O3221  1  0.253200  0.135100  0.690700  1.0  -0.8026
  O  O3222  1  0.199600  0.134600  0.702900  1.0  -0.8654
  O  O3223  1  0.218100  0.157300  0.663500  1.0  -0.9662
  O  O3224  1  0.285900  0.028300  0.663200  1.0  -0.8169
  O  O3225  1  0.167800  0.055400  0.669600  1.0  -0.8154
  O  O3226  1  0.330000  0.026600  0.618000  1.0  -0.7728
  O  O3227  1  0.217100  0.106500  0.670500  1.0  -0.8212
  O  O3228  1  0.199600  0.073400  0.633900  1.0  -0.9095
  O  O3229  1  0.211700  0.030500  0.658700  1.0  -0.8577
  O  O3230  1  0.178300  0.027900  0.627500  1.0  -0.8605
  O  O3231  1  0.250400  0.580900  0.126100  1.0  -0.807
  O  O3232  1  0.287000  0.614100  0.112700  1.0  -0.9691
  O  O3233  1  0.281300  0.601700  0.159100  1.0  -0.8034
  O  O3234  1  0.298800  0.565900  0.128800  1.0  -0.9023
  O  O3235  1  0.253200  0.635100  0.190700  1.0  -0.8026
  O  O3236  1  0.199600  0.634600  0.202900  1.0  -0.8654
  O  O3237  1  0.218100  0.657300  0.163500  1.0  -0.9662
  O  O3238  1  0.285900  0.528300  0.163200  1.0  -0.8169
  O  O3239  1  0.167800  0.555400  0.169600  1.0  -0.8154
  O  O3240  1  0.330000  0.526600  0.118000  1.0  -0.7728
  O  O3241  1  0.217100  0.606500  0.170500  1.0  -0.8212
  O  O3242  1  0.199600  0.573400  0.133900  1.0  -0.9095
  O  O3243  1  0.211700  0.530500  0.158700  1.0  -0.8577
  O  O3244  1  0.178300  0.527900  0.127500  1.0  -0.8605
  O  O3245  1  0.750400  0.080900  0.126100  1.0  -0.807
  O  O3246  1  0.787000  0.114100  0.112700  1.0  -0.9691
  O  O3247  1  0.781300  0.101700  0.159100  1.0  -0.8034
  O  O3248  1  0.798800  0.065900  0.128800  1.0  -0.9023
  O  O3249  1  0.753200  0.135100  0.190700  1.0  -0.8026
  O  O3250  1  0.699600  0.134600  0.202900  1.0  -0.8654
  O  O3251  1  0.718100  0.157300  0.163500  1.0  -0.9662
  O  O3252  1  0.785900  0.028300  0.163200  1.0  -0.8169
  O  O3253  1  0.667800  0.055400  0.169600  1.0  -0.8154
  O  O3254  1  0.830000  0.026600  0.118000  1.0  -0.7728
  O  O3255  1  0.717100  0.106500  0.170500  1.0  -0.8212
  O  O3256  1  0.699600  0.073400  0.133900  1.0  -0.9095
  O  O3257  1  0.711700  0.030500  0.158700  1.0  -0.8577
  O  O3258  1  0.678300  0.027900  0.127500  1.0  -0.8605
  O  O3259  1  0.750400  0.580900  0.626100  1.0  -0.807
  O  O3260  1  0.787000  0.614100  0.612700  1.0  -0.9691
  O  O3261  1  0.781300  0.601700  0.659100  1.0  -0.8034
  O  O3262  1  0.798800  0.565900  0.628800  1.0  -0.9023
  O  O3263  1  0.753200  0.635100  0.690700  1.0  -0.8026
  O  O3264  1  0.699600  0.634600  0.702900  1.0  -0.8654
  O  O3265  1  0.718100  0.657300  0.663500  1.0  -0.9662
  O  O3266  1  0.785900  0.528300  0.663200  1.0  -0.8169
  O  O3267  1  0.667800  0.555400  0.669600  1.0  -0.8154
  O  O3268  1  0.830000  0.526600  0.618000  1.0  -0.7728
  O  O3269  1  0.717100  0.606500  0.670500  1.0  -0.8212
  O  O3270  1  0.699600  0.573400  0.633900  1.0  -0.9095
  O  O3271  1  0.711700  0.530500  0.658700  1.0  -0.8577
  O  O3272  1  0.678300  0.527900  0.627500  1.0  -0.8605
  O  O3273  1  0.250400  0.919100  0.373900  1.0  -0.8084
  O  O3274  1  0.287000  0.885900  0.387300  1.0  -0.9699
  O  O3275  1  0.281300  0.898300  0.340900  1.0  -0.8019
  O  O3276  1  0.298800  0.934100  0.371200  1.0  -0.9033
  O  O3277  1  0.253200  0.864900  0.309300  1.0  -0.8036
  O  O3278  1  0.199600  0.865400  0.297100  1.0  -0.8634
  O  O3279  1  0.218100  0.842700  0.336500  1.0  -0.965
  O  O3280  1  0.285900  0.971700  0.336800  1.0  -0.8168
  O  O3281  1  0.167800  0.944600  0.330400  1.0  -0.8143
  O  O3282  1  0.330000  0.973400  0.382000  1.0  -0.7731
  O  O3283  1  0.217100  0.893500  0.329500  1.0  -0.8208
  O  O3284  1  0.199600  0.926600  0.366100  1.0  -0.9106
  O  O3285  1  0.211700  0.969500  0.341300  1.0  -0.8567
  O  O3286  1  0.178300  0.972100  0.372500  1.0  -0.8573
  O  O3287  1  0.250400  0.419100  0.873900  1.0  -0.8084
  O  O3288  1  0.287000  0.385900  0.887300  1.0  -0.9699
  O  O3289  1  0.281300  0.398300  0.840900  1.0  -0.8019
  O  O3290  1  0.298800  0.434100  0.871200  1.0  -0.9033
  O  O3291  1  0.253200  0.364900  0.809300  1.0  -0.8036
  O  O3292  1  0.199600  0.365400  0.797100  1.0  -0.8634
  O  O3293  1  0.218100  0.342700  0.836500  1.0  -0.965
  O  O3294  1  0.285900  0.471700  0.836800  1.0  -0.8168
  O  O3295  1  0.167800  0.444600  0.830400  1.0  -0.8143
  O  O3296  1  0.330000  0.473400  0.882000  1.0  -0.7731
  O  O3297  1  0.217100  0.393500  0.829500  1.0  -0.8208
  O  O3298  1  0.199600  0.426600  0.866100  1.0  -0.9106
  O  O3299  1  0.211700  0.469500  0.841300  1.0  -0.8567
  O  O3300  1  0.178300  0.472100  0.872500  1.0  -0.8573
  O  O3301  1  0.750400  0.919100  0.873900  1.0  -0.8084
  O  O3302  1  0.787000  0.885900  0.887300  1.0  -0.9699
  O  O3303  1  0.781300  0.898300  0.840900  1.0  -0.8019
  O  O3304  1  0.798800  0.934100  0.871200  1.0  -0.9033
  O  O3305  1  0.753200  0.864900  0.809300  1.0  -0.8036
  O  O3306  1  0.699600  0.865400  0.797100  1.0  -0.8634
  O  O3307  1  0.718100  0.842700  0.836500  1.0  -0.965
  O  O3308  1  0.785900  0.971700  0.836800  1.0  -0.8168
  O  O3309  1  0.667800  0.944600  0.830400  1.0  -0.8143
  O  O3310  1  0.830000  0.973400  0.882000  1.0  -0.7731
  O  O3311  1  0.717100  0.893500  0.829500  1.0  -0.8208
  O  O3312  1  0.699600  0.926600  0.866100  1.0  -0.9106
  O  O3313  1  0.711700  0.969500  0.841300  1.0  -0.8567
  O  O3314  1  0.678300  0.972100  0.872500  1.0  -0.8573
  O  O3315  1  0.750400  0.419100  0.373900  1.0  -0.8084
  O  O3316  1  0.787000  0.385900  0.387300  1.0  -0.9699
  O  O3317  1  0.781300  0.398300  0.340900  1.0  -0.8019
  O  O3318  1  0.798800  0.434100  0.371200  1.0  -0.9033
  O  O3319  1  0.753200  0.364900  0.309300  1.0  -0.8036
  O  O3320  1  0.699600  0.365400  0.297100  1.0  -0.8634
  O  O3321  1  0.718100  0.342700  0.336500  1.0  -0.965
  O  O3322  1  0.785900  0.471700  0.336800  1.0  -0.8168
  O  O3323  1  0.667800  0.444600  0.330400  1.0  -0.8143
  O  O3324  1  0.830000  0.473400  0.382000  1.0  -0.7731
  O  O3325  1  0.717100  0.393500  0.329500  1.0  -0.8208
  O  O3326  1  0.699600  0.426600  0.366100  1.0  -0.9106
  O  O3327  1  0.711700  0.469500  0.341300  1.0  -0.8567
  O  O3328  1  0.678300  0.472100  0.372500  1.0  -0.8573
  O  O3329  1  0.626100  0.749600  0.919100  1.0  -0.805
  O  O3330  1  0.612700  0.713000  0.885900  1.0  -0.9702
  O  O3331  1  0.659100  0.718700  0.898300  1.0  -0.8001
  O  O3332  1  0.628800  0.701200  0.934100  1.0  -0.9056
  O  O3333  1  0.690700  0.746800  0.864900  1.0  -0.8027
  O  O3334  1  0.702900  0.800400  0.865400  1.0  -0.8629
  O  O3335  1  0.663500  0.781900  0.842700  1.0  -0.9666
  O  O3336  1  0.663200  0.714100  0.971700  1.0  -0.8217
  O  O3337  1  0.669600  0.832200  0.944600  1.0  -0.8157
  O  O3338  1  0.618000  0.670000  0.973400  1.0  -0.7745
  O  O3339  1  0.670500  0.782900  0.893500  1.0  -0.8206
  O  O3340  1  0.633900  0.800400  0.926600  1.0  -0.9117
  O  O3341  1  0.658700  0.788300  0.969500  1.0  -0.8586
  O  O3342  1  0.627500  0.821700  0.972100  1.0  -0.859
  O  O3343  1  0.626100  0.249600  0.419100  1.0  -0.805
  O  O3344  1  0.612700  0.213000  0.385900  1.0  -0.9702
  O  O3345  1  0.659100  0.218700  0.398300  1.0  -0.8001
  O  O3346  1  0.628800  0.201200  0.434100  1.0  -0.9056
  O  O3347  1  0.690700  0.246800  0.364900  1.0  -0.8027
  O  O3348  1  0.702900  0.300400  0.365400  1.0  -0.8629
  O  O3349  1  0.663500  0.281900  0.342700  1.0  -0.9666
  O  O3350  1  0.663200  0.214100  0.471700  1.0  -0.8217
  O  O3351  1  0.669600  0.332200  0.444600  1.0  -0.8157
  O  O3352  1  0.618000  0.170000  0.473400  1.0  -0.7745
  O  O3353  1  0.670500  0.282900  0.393500  1.0  -0.8206
  O  O3354  1  0.633900  0.300400  0.426600  1.0  -0.9117
  O  O3355  1  0.658700  0.288300  0.469500  1.0  -0.8586
  O  O3356  1  0.627500  0.321700  0.472100  1.0  -0.859
  O  O3357  1  0.126100  0.749600  0.419100  1.0  -0.805
  O  O3358  1  0.112700  0.713000  0.385900  1.0  -0.9702
  O  O3359  1  0.159100  0.718700  0.398300  1.0  -0.8001
  O  O3360  1  0.128800  0.701200  0.434100  1.0  -0.9056
  O  O3361  1  0.190700  0.746800  0.364900  1.0  -0.8027
  O  O3362  1  0.202900  0.800400  0.365400  1.0  -0.8629
  O  O3363  1  0.163500  0.781900  0.342700  1.0  -0.9666
  O  O3364  1  0.163200  0.714100  0.471700  1.0  -0.8217
  O  O3365  1  0.169600  0.832200  0.444600  1.0  -0.8157
  O  O3366  1  0.118000  0.670000  0.473400  1.0  -0.7745
  O  O3367  1  0.170500  0.782900  0.393500  1.0  -0.8206
  O  O3368  1  0.133900  0.800400  0.426600  1.0  -0.9117
  O  O3369  1  0.158700  0.788300  0.469500  1.0  -0.8586
  O  O3370  1  0.127500  0.821700  0.472100  1.0  -0.859
  O  O3371  1  0.126100  0.249600  0.919100  1.0  -0.805
  O  O3372  1  0.112700  0.213000  0.885900  1.0  -0.9702
  O  O3373  1  0.159100  0.218700  0.898300  1.0  -0.8001
  O  O3374  1  0.128800  0.201200  0.934100  1.0  -0.9056
  O  O3375  1  0.190700  0.246800  0.864900  1.0  -0.8027
  O  O3376  1  0.202900  0.300400  0.865400  1.0  -0.8629
  O  O3377  1  0.163500  0.281900  0.842700  1.0  -0.9666
  O  O3378  1  0.163200  0.214100  0.971700  1.0  -0.8217
  O  O3379  1  0.169600  0.332200  0.944600  1.0  -0.8157
  O  O3380  1  0.118000  0.170000  0.973400  1.0  -0.7745
  O  O3381  1  0.170500  0.282900  0.893500  1.0  -0.8206
  O  O3382  1  0.133900  0.300400  0.926600  1.0  -0.9117
  O  O3383  1  0.158700  0.288300  0.969500  1.0  -0.8586
  O  O3384  1  0.127500  0.321700  0.972100  1.0  -0.859
  O  O3385  1  0.373900  0.749600  0.080900  1.0  -0.8054
  O  O3386  1  0.387300  0.713000  0.114100  1.0  -0.9691
  O  O3387  1  0.340900  0.718700  0.101700  1.0  -0.8006
  O  O3388  1  0.371200  0.701200  0.065900  1.0  -0.9023
  O  O3389  1  0.309300  0.746800  0.135100  1.0  -0.8034
  O  O3390  1  0.297100  0.800400  0.134600  1.0  -0.8653
  O  O3391  1  0.336500  0.781900  0.157300  1.0  -0.9674
  O  O3392  1  0.336800  0.714100  0.028300  1.0  -0.8227
  O  O3393  1  0.330400  0.832200  0.055400  1.0  -0.8146
  O  O3394  1  0.382000  0.670000  0.026600  1.0  -0.7721
  O  O3395  1  0.329500  0.782900  0.106500  1.0  -0.8207
  O  O3396  1  0.366100  0.800400  0.073400  1.0  -0.9129
  O  O3397  1  0.341300  0.788300  0.030500  1.0  -0.8584
  O  O3398  1  0.372500  0.821700  0.027900  1.0  -0.8542
  O  O3399  1  0.373900  0.249600  0.580900  1.0  -0.8054
  O  O3400  1  0.387300  0.213000  0.614100  1.0  -0.9691
  O  O3401  1  0.340900  0.218700  0.601700  1.0  -0.8006
  O  O3402  1  0.371200  0.201200  0.565900  1.0  -0.9023
  O  O3403  1  0.309300  0.246800  0.635100  1.0  -0.8034
  O  O3404  1  0.297100  0.300400  0.634600  1.0  -0.8653
  O  O3405  1  0.336500  0.281900  0.657300  1.0  -0.9674
  O  O3406  1  0.336800  0.214100  0.528300  1.0  -0.8227
  O  O3407  1  0.330400  0.332200  0.555400  1.0  -0.8146
  O  O3408  1  0.382000  0.170000  0.526600  1.0  -0.7721
  O  O3409  1  0.329500  0.282900  0.606500  1.0  -0.8207
  O  O3410  1  0.366100  0.300400  0.573400  1.0  -0.9129
  O  O3411  1  0.341300  0.288300  0.530500  1.0  -0.8584
  O  O3412  1  0.372500  0.321700  0.527900  1.0  -0.8542
  O  O3413  1  0.873900  0.749600  0.580900  1.0  -0.8054
  O  O3414  1  0.887300  0.713000  0.614100  1.0  -0.9691
  O  O3415  1  0.840900  0.718700  0.601700  1.0  -0.8006
  O  O3416  1  0.871200  0.701200  0.565900  1.0  -0.9023
  O  O3417  1  0.809300  0.746800  0.635100  1.0  -0.8034
  O  O3418  1  0.797100  0.800400  0.634600  1.0  -0.8653
  O  O3419  1  0.836500  0.781900  0.657300  1.0  -0.9674
  O  O3420  1  0.836800  0.714100  0.528300  1.0  -0.8227
  O  O3421  1  0.830400  0.832200  0.555400  1.0  -0.8146
  O  O3422  1  0.882000  0.670000  0.526600  1.0  -0.7721
  O  O3423  1  0.829500  0.782900  0.606500  1.0  -0.8207
  O  O3424  1  0.866100  0.800400  0.573400  1.0  -0.9129
  O  O3425  1  0.841300  0.788300  0.530500  1.0  -0.8584
  O  O3426  1  0.872500  0.821700  0.527900  1.0  -0.8542
  O  O3427  1  0.873900  0.249600  0.080900  1.0  -0.8054
  O  O3428  1  0.887300  0.213000  0.114100  1.0  -0.9691
  O  O3429  1  0.840900  0.218700  0.101700  1.0  -0.8006
  O  O3430  1  0.871200  0.201200  0.065900  1.0  -0.9023
  O  O3431  1  0.809300  0.246800  0.135100  1.0  -0.8034
  O  O3432  1  0.797100  0.300400  0.134600  1.0  -0.8653
  O  O3433  1  0.836500  0.281900  0.157300  1.0  -0.9674
  O  O3434  1  0.836800  0.214100  0.028300  1.0  -0.8227
  O  O3435  1  0.830400  0.332200  0.055400  1.0  -0.8146
  O  O3436  1  0.882000  0.170000  0.026600  1.0  -0.7721
  O  O3437  1  0.829500  0.282900  0.106500  1.0  -0.8207
  O  O3438  1  0.866100  0.300400  0.073400  1.0  -0.9129
  O  O3439  1  0.841300  0.288300  0.030500  1.0  -0.8584
  O  O3440  1  0.872500  0.321700  0.027900  1.0  -0.8542
  O  O3441  1  0.626100  0.250400  0.080900  1.0  -0.8049
  O  O3442  1  0.612700  0.287000  0.114100  1.0  -0.9716
  O  O3443  1  0.659100  0.281300  0.101700  1.0  -0.8001
  O  O3444  1  0.628800  0.298800  0.065900  1.0  -0.9049
  O  O3445  1  0.690700  0.253200  0.135100  1.0  -0.8027
  O  O3446  1  0.702900  0.199600  0.134600  1.0  -0.8629
  O  O3447  1  0.663500  0.218100  0.157300  1.0  -0.9677
  O  O3448  1  0.663200  0.285900  0.028300  1.0  -0.8235
  O  O3449  1  0.669600  0.167800  0.055400  1.0  -0.815
  O  O3450  1  0.618000  0.330000  0.026600  1.0  -0.7747
  O  O3451  1  0.670500  0.217100  0.106500  1.0  -0.8197
  O  O3452  1  0.633900  0.199600  0.073400  1.0  -0.9114
  O  O3453  1  0.658700  0.211700  0.030500  1.0  -0.8583
  O  O3454  1  0.627500  0.178300  0.027900  1.0  -0.8585
  O  O3455  1  0.626100  0.750400  0.580900  1.0  -0.8049
  O  O3456  1  0.612700  0.787000  0.614100  1.0  -0.9716
  O  O3457  1  0.659100  0.781300  0.601700  1.0  -0.8001
  O  O3458  1  0.628800  0.798800  0.565900  1.0  -0.9049
  O  O3459  1  0.690700  0.753200  0.635100  1.0  -0.8027
  O  O3460  1  0.702900  0.699600  0.634600  1.0  -0.8629
  O  O3461  1  0.663500  0.718100  0.657300  1.0  -0.9677
  O  O3462  1  0.663200  0.785900  0.528300  1.0  -0.8235
  O  O3463  1  0.669600  0.667800  0.555400  1.0  -0.815
  O  O3464  1  0.618000  0.830000  0.526600  1.0  -0.7747
  O  O3465  1  0.670500  0.717100  0.606500  1.0  -0.8197
  O  O3466  1  0.633900  0.699600  0.573400  1.0  -0.9114
  O  O3467  1  0.658700  0.711700  0.530500  1.0  -0.8583
  O  O3468  1  0.627500  0.678300  0.527900  1.0  -0.8585
  O  O3469  1  0.126100  0.250400  0.580900  1.0  -0.8049
  O  O3470  1  0.112700  0.287000  0.614100  1.0  -0.9716
  O  O3471  1  0.159100  0.281300  0.601700  1.0  -0.8001
  O  O3472  1  0.128800  0.298800  0.565900  1.0  -0.9049
  O  O3473  1  0.190700  0.253200  0.635100  1.0  -0.8027
  O  O3474  1  0.202900  0.199600  0.634600  1.0  -0.8629
  O  O3475  1  0.163500  0.218100  0.657300  1.0  -0.9677
  O  O3476  1  0.163200  0.285900  0.528300  1.0  -0.8235
  O  O3477  1  0.169600  0.167800  0.555400  1.0  -0.815
  O  O3478  1  0.118000  0.330000  0.526600  1.0  -0.7747
  O  O3479  1  0.170500  0.217100  0.606500  1.0  -0.8197
  O  O3480  1  0.133900  0.199600  0.573400  1.0  -0.9114
  O  O3481  1  0.158700  0.211700  0.530500  1.0  -0.8583
  O  O3482  1  0.127500  0.178300  0.527900  1.0  -0.8585
  O  O3483  1  0.126100  0.750400  0.080900  1.0  -0.8049
  O  O3484  1  0.112700  0.787000  0.114100  1.0  -0.9716
  O  O3485  1  0.159100  0.781300  0.101700  1.0  -0.8001
  O  O3486  1  0.128800  0.798800  0.065900  1.0  -0.9049
  O  O3487  1  0.190700  0.753200  0.135100  1.0  -0.8027
  O  O3488  1  0.202900  0.699600  0.134600  1.0  -0.8629
  O  O3489  1  0.163500  0.718100  0.157300  1.0  -0.9677
  O  O3490  1  0.163200  0.785900  0.028300  1.0  -0.8235
  O  O3491  1  0.169600  0.667800  0.055400  1.0  -0.815
  O  O3492  1  0.118000  0.830000  0.026600  1.0  -0.7747
  O  O3493  1  0.170500  0.717100  0.106500  1.0  -0.8197
  O  O3494  1  0.133900  0.699600  0.073400  1.0  -0.9114
  O  O3495  1  0.158700  0.711700  0.030500  1.0  -0.8583
  O  O3496  1  0.127500  0.678300  0.027900  1.0  -0.8585
  O  O3497  1  0.373900  0.250400  0.919100  1.0  -0.8041
  O  O3498  1  0.387300  0.287000  0.885900  1.0  -0.9692
  O  O3499  1  0.340900  0.281300  0.898300  1.0  -0.8003
  O  O3500  1  0.371200  0.298800  0.934100  1.0  -0.9035
  O  O3501  1  0.309300  0.253200  0.864900  1.0  -0.8034
  O  O3502  1  0.297100  0.199600  0.865400  1.0  -0.8648
  O  O3503  1  0.336500  0.218100  0.842700  1.0  -0.9657
  O  O3504  1  0.336800  0.285900  0.971700  1.0  -0.823
  O  O3505  1  0.330400  0.167800  0.944600  1.0  -0.8156
  O  O3506  1  0.382000  0.330000  0.973400  1.0  -0.7734
  O  O3507  1  0.329500  0.217100  0.893500  1.0  -0.8219
  O  O3508  1  0.366100  0.199600  0.926600  1.0  -0.9136
  O  O3509  1  0.341300  0.211700  0.969500  1.0  -0.8582
  O  O3510  1  0.372500  0.178300  0.972100  1.0  -0.8553
  O  O3511  1  0.373900  0.750400  0.419100  1.0  -0.8041
  O  O3512  1  0.387300  0.787000  0.385900  1.0  -0.9692
  O  O3513  1  0.340900  0.781300  0.398300  1.0  -0.8003
  O  O3514  1  0.371200  0.798800  0.434100  1.0  -0.9035
  O  O3515  1  0.309300  0.753200  0.364900  1.0  -0.8034
  O  O3516  1  0.297100  0.699600  0.365400  1.0  -0.8648
  O  O3517  1  0.336500  0.718100  0.342700  1.0  -0.9657
  O  O3518  1  0.336800  0.785900  0.471700  1.0  -0.823
  O  O3519  1  0.330400  0.667800  0.444600  1.0  -0.8156
  O  O3520  1  0.382000  0.830000  0.473400  1.0  -0.7734
  O  O3521  1  0.329500  0.717100  0.393500  1.0  -0.8219
  O  O3522  1  0.366100  0.699600  0.426600  1.0  -0.9136
  O  O3523  1  0.341300  0.711700  0.469500  1.0  -0.8582
  O  O3524  1  0.372500  0.678300  0.472100  1.0  -0.8553
  O  O3525  1  0.873900  0.250400  0.419100  1.0  -0.8041
  O  O3526  1  0.887300  0.287000  0.385900  1.0  -0.9692
  O  O3527  1  0.840900  0.281300  0.398300  1.0  -0.8003
  O  O3528  1  0.871200  0.298800  0.434100  1.0  -0.9035
  O  O3529  1  0.809300  0.253200  0.364900  1.0  -0.8034
  O  O3530  1  0.797100  0.199600  0.365400  1.0  -0.8648
  O  O3531  1  0.836500  0.218100  0.342700  1.0  -0.9657
  O  O3532  1  0.836800  0.285900  0.471700  1.0  -0.823
  O  O3533  1  0.830400  0.167800  0.444600  1.0  -0.8156
  O  O3534  1  0.882000  0.330000  0.473400  1.0  -0.7734
  O  O3535  1  0.829500  0.217100  0.393500  1.0  -0.8219
  O  O3536  1  0.866100  0.199600  0.426600  1.0  -0.9136
  O  O3537  1  0.841300  0.211700  0.469500  1.0  -0.8582
  O  O3538  1  0.872500  0.178300  0.472100  1.0  -0.8553
  O  O3539  1  0.873900  0.750400  0.919100  1.0  -0.8041
  O  O3540  1  0.887300  0.787000  0.885900  1.0  -0.9692
  O  O3541  1  0.840900  0.781300  0.898300  1.0  -0.8003
  O  O3542  1  0.871200  0.798800  0.934100  1.0  -0.9035
  O  O3543  1  0.809300  0.753200  0.864900  1.0  -0.8034
  O  O3544  1  0.797100  0.699600  0.865400  1.0  -0.8648
  O  O3545  1  0.836500  0.718100  0.842700  1.0  -0.9657
  O  O3546  1  0.836800  0.785900  0.971700  1.0  -0.823
  O  O3547  1  0.830400  0.667800  0.944600  1.0  -0.8156
  O  O3548  1  0.882000  0.830000  0.973400  1.0  -0.7734
  O  O3549  1  0.829500  0.717100  0.893500  1.0  -0.8219
  O  O3550  1  0.866100  0.699600  0.926600  1.0  -0.9136
  O  O3551  1  0.841300  0.711700  0.969500  1.0  -0.8582
  O  O3552  1  0.872500  0.678300  0.972100  1.0  -0.8553
  O  O3553  1  0.126100  0.419100  0.750400  1.0  -0.806
  O  O3554  1  0.112700  0.385900  0.787000  1.0  -0.9672
  O  O3555  1  0.159100  0.398300  0.781300  1.0  -0.8005
  O  O3556  1  0.128800  0.434100  0.798800  1.0  -0.9066
  O  O3557  1  0.190700  0.364900  0.753200  1.0  -0.8027
  O  O3558  1  0.202900  0.365400  0.699600  1.0  -0.8632
  O  O3559  1  0.163500  0.342700  0.718100  1.0  -0.9671
  O  O3560  1  0.163200  0.471700  0.785900  1.0  -0.8209
  O  O3561  1  0.169600  0.444600  0.667800  1.0  -0.8149
  O  O3562  1  0.118000  0.473400  0.830000  1.0  -0.7734
  O  O3563  1  0.170500  0.393500  0.717100  1.0  -0.8204
  O  O3564  1  0.133900  0.426600  0.699600  1.0  -0.9117
  O  O3565  1  0.158700  0.469500  0.711700  1.0  -0.8582
  O  O3566  1  0.127500  0.472100  0.678300  1.0  -0.8578
  O  O3567  1  0.126100  0.919100  0.250400  1.0  -0.806
  O  O3568  1  0.112700  0.885900  0.287000  1.0  -0.9672
  O  O3569  1  0.159100  0.898300  0.281300  1.0  -0.8005
  O  O3570  1  0.128800  0.934100  0.298800  1.0  -0.9066
  O  O3571  1  0.190700  0.864900  0.253200  1.0  -0.8027
  O  O3572  1  0.202900  0.865400  0.199600  1.0  -0.8632
  O  O3573  1  0.163500  0.842700  0.218100  1.0  -0.9671
  O  O3574  1  0.163200  0.971700  0.285900  1.0  -0.8209
  O  O3575  1  0.169600  0.944600  0.167800  1.0  -0.8149
  O  O3576  1  0.118000  0.973400  0.330000  1.0  -0.7734
  O  O3577  1  0.170500  0.893500  0.217100  1.0  -0.8204
  O  O3578  1  0.133900  0.926600  0.199600  1.0  -0.9117
  O  O3579  1  0.158700  0.969500  0.211700  1.0  -0.8582
  O  O3580  1  0.127500  0.972100  0.178300  1.0  -0.8578
  O  O3581  1  0.626100  0.419100  0.250400  1.0  -0.806
  O  O3582  1  0.612700  0.385900  0.287000  1.0  -0.9672
  O  O3583  1  0.659100  0.398300  0.281300  1.0  -0.8005
  O  O3584  1  0.628800  0.434100  0.298800  1.0  -0.9066
  O  O3585  1  0.690700  0.364900  0.253200  1.0  -0.8027
  O  O3586  1  0.702900  0.365400  0.199600  1.0  -0.8632
  O  O3587  1  0.663500  0.342700  0.218100  1.0  -0.9671
  O  O3588  1  0.663200  0.471700  0.285900  1.0  -0.8209
  O  O3589  1  0.669600  0.444600  0.167800  1.0  -0.8149
  O  O3590  1  0.618000  0.473400  0.330000  1.0  -0.7734
  O  O3591  1  0.670500  0.393500  0.217100  1.0  -0.8204
  O  O3592  1  0.633900  0.426600  0.199600  1.0  -0.9117
  O  O3593  1  0.658700  0.469500  0.211700  1.0  -0.8582
  O  O3594  1  0.627500  0.472100  0.178300  1.0  -0.8578
  O  O3595  1  0.626100  0.919100  0.750400  1.0  -0.806
  O  O3596  1  0.612700  0.885900  0.787000  1.0  -0.9672
  O  O3597  1  0.659100  0.898300  0.781300  1.0  -0.8005
  O  O3598  1  0.628800  0.934100  0.798800  1.0  -0.9066
  O  O3599  1  0.690700  0.864900  0.753200  1.0  -0.8027
  O  O3600  1  0.702900  0.865400  0.699600  1.0  -0.8632
  O  O3601  1  0.663500  0.842700  0.718100  1.0  -0.9671
  O  O3602  1  0.663200  0.971700  0.785900  1.0  -0.8209
  O  O3603  1  0.669600  0.944600  0.667800  1.0  -0.8149
  O  O3604  1  0.618000  0.973400  0.830000  1.0  -0.7734
  O  O3605  1  0.670500  0.893500  0.717100  1.0  -0.8204
  O  O3606  1  0.633900  0.926600  0.699600  1.0  -0.9117
  O  O3607  1  0.658700  0.969500  0.711700  1.0  -0.8582
  O  O3608  1  0.627500  0.972100  0.678300  1.0  -0.8578
  O  O3609  1  0.873900  0.580900  0.750400  1.0  -0.8056
  O  O3610  1  0.887300  0.614100  0.787000  1.0  -0.9654
  O  O3611  1  0.840900  0.601700  0.781300  1.0  -0.8006
  O  O3612  1  0.871200  0.565900  0.798800  1.0  -0.904
  O  O3613  1  0.809300  0.635100  0.753200  1.0  -0.8034
  O  O3614  1  0.797100  0.634600  0.699600  1.0  -0.8651
  O  O3615  1  0.836500  0.657300  0.718100  1.0  -0.9675
  O  O3616  1  0.836800  0.528300  0.785900  1.0  -0.8214
  O  O3617  1  0.830400  0.555400  0.667800  1.0  -0.8142
  O  O3618  1  0.882000  0.526600  0.830000  1.0  -0.7725
  O  O3619  1  0.829500  0.606500  0.717100  1.0  -0.8219
  O  O3620  1  0.866100  0.573400  0.699600  1.0  -0.9127
  O  O3621  1  0.841300  0.530500  0.711700  1.0  -0.858
  O  O3622  1  0.872500  0.527900  0.678300  1.0  -0.8535
  O  O3623  1  0.873900  0.080900  0.250400  1.0  -0.8056
  O  O3624  1  0.887300  0.114100  0.287000  1.0  -0.9654
  O  O3625  1  0.840900  0.101700  0.281300  1.0  -0.8006
  O  O3626  1  0.871200  0.065900  0.298800  1.0  -0.904
  O  O3627  1  0.809300  0.135100  0.253200  1.0  -0.8034
  O  O3628  1  0.797100  0.134600  0.199600  1.0  -0.8651
  O  O3629  1  0.836500  0.157300  0.218100  1.0  -0.9675
  O  O3630  1  0.836800  0.028300  0.285900  1.0  -0.8214
  O  O3631  1  0.830400  0.055400  0.167800  1.0  -0.8142
  O  O3632  1  0.882000  0.026600  0.330000  1.0  -0.7725
  O  O3633  1  0.829500  0.106500  0.217100  1.0  -0.8219
  O  O3634  1  0.866100  0.073400  0.199600  1.0  -0.9127
  O  O3635  1  0.841300  0.030500  0.211700  1.0  -0.858
  O  O3636  1  0.872500  0.027900  0.178300  1.0  -0.8535
  O  O3637  1  0.373900  0.580900  0.250400  1.0  -0.8056
  O  O3638  1  0.387300  0.614100  0.287000  1.0  -0.9654
  O  O3639  1  0.340900  0.601700  0.281300  1.0  -0.8006
  O  O3640  1  0.371200  0.565900  0.298800  1.0  -0.904
  O  O3641  1  0.309300  0.635100  0.253200  1.0  -0.8034
  O  O3642  1  0.297100  0.634600  0.199600  1.0  -0.8651
  O  O3643  1  0.336500  0.657300  0.218100  1.0  -0.9675
  O  O3644  1  0.336800  0.528300  0.285900  1.0  -0.8214
  O  O3645  1  0.330400  0.555400  0.167800  1.0  -0.8142
  O  O3646  1  0.382000  0.526600  0.330000  1.0  -0.7725
  O  O3647  1  0.329500  0.606500  0.217100  1.0  -0.8219
  O  O3648  1  0.366100  0.573400  0.199600  1.0  -0.9127
  O  O3649  1  0.341300  0.530500  0.211700  1.0  -0.858
  O  O3650  1  0.372500  0.527900  0.178300  1.0  -0.8535
  O  O3651  1  0.373900  0.080900  0.750400  1.0  -0.8056
  O  O3652  1  0.387300  0.114100  0.787000  1.0  -0.9654
  O  O3653  1  0.340900  0.101700  0.781300  1.0  -0.8006
  O  O3654  1  0.371200  0.065900  0.798800  1.0  -0.904
  O  O3655  1  0.309300  0.135100  0.753200  1.0  -0.8034
  O  O3656  1  0.297100  0.134600  0.699600  1.0  -0.8651
  O  O3657  1  0.336500  0.157300  0.718100  1.0  -0.9675
  O  O3658  1  0.336800  0.028300  0.785900  1.0  -0.8214
  O  O3659  1  0.330400  0.055400  0.667800  1.0  -0.8142
  O  O3660  1  0.382000  0.026600  0.830000  1.0  -0.7725
  O  O3661  1  0.329500  0.106500  0.717100  1.0  -0.8219
  O  O3662  1  0.366100  0.073400  0.699600  1.0  -0.9127
  O  O3663  1  0.341300  0.030500  0.711700  1.0  -0.858
  O  O3664  1  0.372500  0.027900  0.678300  1.0  -0.8535
  O  O3665  1  0.126100  0.580900  0.249600  1.0  -0.8054
  O  O3666  1  0.112700  0.614100  0.213000  1.0  -0.9671
  O  O3667  1  0.159100  0.601700  0.218700  1.0  -0.8006
  O  O3668  1  0.128800  0.565900  0.201200  1.0  -0.9062
  O  O3669  1  0.190700  0.635100  0.246800  1.0  -0.8028
  O  O3670  1  0.202900  0.634600  0.300400  1.0  -0.8632
  O  O3671  1  0.163500  0.657300  0.281900  1.0  -0.9685
  O  O3672  1  0.163200  0.528300  0.214100  1.0  -0.8202
  O  O3673  1  0.169600  0.555400  0.332200  1.0  -0.8154
  O  O3674  1  0.118000  0.526600  0.170000  1.0  -0.7748
  O  O3675  1  0.170500  0.606500  0.282900  1.0  -0.8194
  O  O3676  1  0.133900  0.573400  0.300400  1.0  -0.9111
  O  O3677  1  0.158700  0.530500  0.288300  1.0  -0.8583
  O  O3678  1  0.127500  0.527900  0.321700  1.0  -0.8578
  O  O3679  1  0.126100  0.080900  0.749600  1.0  -0.8054
  O  O3680  1  0.112700  0.114100  0.713000  1.0  -0.9671
  O  O3681  1  0.159100  0.101700  0.718700  1.0  -0.8006
  O  O3682  1  0.128800  0.065900  0.701200  1.0  -0.9062
  O  O3683  1  0.190700  0.135100  0.746800  1.0  -0.8028
  O  O3684  1  0.202900  0.134600  0.800400  1.0  -0.8632
  O  O3685  1  0.163500  0.157300  0.781900  1.0  -0.9685
  O  O3686  1  0.163200  0.028300  0.714100  1.0  -0.8202
  O  O3687  1  0.169600  0.055400  0.832200  1.0  -0.8154
  O  O3688  1  0.118000  0.026600  0.670000  1.0  -0.7748
  O  O3689  1  0.170500  0.106500  0.782900  1.0  -0.8194
  O  O3690  1  0.133900  0.073400  0.800400  1.0  -0.9111
  O  O3691  1  0.158700  0.030500  0.788300  1.0  -0.8583
  O  O3692  1  0.127500  0.027900  0.821700  1.0  -0.8578
  O  O3693  1  0.626100  0.580900  0.749600  1.0  -0.8054
  O  O3694  1  0.612700  0.614100  0.713000  1.0  -0.9671
  O  O3695  1  0.659100  0.601700  0.718700  1.0  -0.8006
  O  O3696  1  0.628800  0.565900  0.701200  1.0  -0.9062
  O  O3697  1  0.690700  0.635100  0.746800  1.0  -0.8028
  O  O3698  1  0.702900  0.634600  0.800400  1.0  -0.8632
  O  O3699  1  0.663500  0.657300  0.781900  1.0  -0.9685
  O  O3700  1  0.663200  0.528300  0.714100  1.0  -0.8202
  O  O3701  1  0.669600  0.555400  0.832200  1.0  -0.8154
  O  O3702  1  0.618000  0.526600  0.670000  1.0  -0.7748
  O  O3703  1  0.670500  0.606500  0.782900  1.0  -0.8194
  O  O3704  1  0.633900  0.573400  0.800400  1.0  -0.9111
  O  O3705  1  0.658700  0.530500  0.788300  1.0  -0.8583
  O  O3706  1  0.627500  0.527900  0.821700  1.0  -0.8578
  O  O3707  1  0.626100  0.080900  0.249600  1.0  -0.8054
  O  O3708  1  0.612700  0.114100  0.213000  1.0  -0.9671
  O  O3709  1  0.659100  0.101700  0.218700  1.0  -0.8006
  O  O3710  1  0.628800  0.065900  0.201200  1.0  -0.9062
  O  O3711  1  0.690700  0.135100  0.246800  1.0  -0.8028
  O  O3712  1  0.702900  0.134600  0.300400  1.0  -0.8632
  O  O3713  1  0.663500  0.157300  0.281900  1.0  -0.9685
  O  O3714  1  0.663200  0.028300  0.214100  1.0  -0.8202
  O  O3715  1  0.669600  0.055400  0.332200  1.0  -0.8154
  O  O3716  1  0.618000  0.026600  0.170000  1.0  -0.7748
  O  O3717  1  0.670500  0.106500  0.282900  1.0  -0.8194
  O  O3718  1  0.633900  0.073400  0.300400  1.0  -0.9111
  O  O3719  1  0.658700  0.030500  0.288300  1.0  -0.8583
  O  O3720  1  0.627500  0.027900  0.321700  1.0  -0.8578
  O  O3721  1  0.873900  0.419100  0.249600  1.0  -0.8059
  O  O3722  1  0.887300  0.385900  0.213000  1.0  -0.9666
  O  O3723  1  0.840900  0.398300  0.218700  1.0  -0.8008
  O  O3724  1  0.871200  0.434100  0.201200  1.0  -0.9035
  O  O3725  1  0.809300  0.364900  0.246800  1.0  -0.8034
  O  O3726  1  0.797100  0.365400  0.300400  1.0  -0.8653
  O  O3727  1  0.836500  0.342700  0.281900  1.0  -0.9658
  O  O3728  1  0.836800  0.471700  0.214100  1.0  -0.8204
  O  O3729  1  0.830400  0.444600  0.332200  1.0  -0.8157
  O  O3730  1  0.882000  0.473400  0.170000  1.0  -0.7722
  O  O3731  1  0.829500  0.393500  0.282900  1.0  -0.8204
  O  O3732  1  0.866100  0.426600  0.300400  1.0  -0.9128
  O  O3733  1  0.841300  0.469500  0.288300  1.0  -0.8584
  O  O3734  1  0.872500  0.472100  0.321700  1.0  -0.8545
  O  O3735  1  0.873900  0.919100  0.749600  1.0  -0.8059
  O  O3736  1  0.887300  0.885900  0.713000  1.0  -0.9666
  O  O3737  1  0.840900  0.898300  0.718700  1.0  -0.8008
  O  O3738  1  0.871200  0.934100  0.701200  1.0  -0.9035
  O  O3739  1  0.809300  0.864900  0.746800  1.0  -0.8034
  O  O3740  1  0.797100  0.865400  0.800400  1.0  -0.8653
  O  O3741  1  0.836500  0.842700  0.781900  1.0  -0.9658
  O  O3742  1  0.836800  0.971700  0.714100  1.0  -0.8204
  O  O3743  1  0.830400  0.944600  0.832200  1.0  -0.8157
  O  O3744  1  0.882000  0.973400  0.670000  1.0  -0.7722
  O  O3745  1  0.829500  0.893500  0.782900  1.0  -0.8204
  O  O3746  1  0.866100  0.926600  0.800400  1.0  -0.9128
  O  O3747  1  0.841300  0.969500  0.788300  1.0  -0.8584
  O  O3748  1  0.872500  0.972100  0.821700  1.0  -0.8545
  O  O3749  1  0.373900  0.419100  0.749600  1.0  -0.8059
  O  O3750  1  0.387300  0.385900  0.713000  1.0  -0.9666
  O  O3751  1  0.340900  0.398300  0.718700  1.0  -0.8008
  O  O3752  1  0.371200  0.434100  0.701200  1.0  -0.9035
  O  O3753  1  0.309300  0.364900  0.746800  1.0  -0.8034
  O  O3754  1  0.297100  0.365400  0.800400  1.0  -0.8653
  O  O3755  1  0.336500  0.342700  0.781900  1.0  -0.9658
  O  O3756  1  0.336800  0.471700  0.714100  1.0  -0.8204
  O  O3757  1  0.330400  0.444600  0.832200  1.0  -0.8157
  O  O3758  1  0.382000  0.473400  0.670000  1.0  -0.7722
  O  O3759  1  0.329500  0.393500  0.782900  1.0  -0.8204
  O  O3760  1  0.366100  0.426600  0.800400  1.0  -0.9128
  O  O3761  1  0.341300  0.469500  0.788300  1.0  -0.8584
  O  O3762  1  0.372500  0.472100  0.821700  1.0  -0.8545
  O  O3763  1  0.373900  0.919100  0.249600  1.0  -0.8059
  O  O3764  1  0.387300  0.885900  0.213000  1.0  -0.9666
  O  O3765  1  0.340900  0.898300  0.218700  1.0  -0.8008
  O  O3766  1  0.371200  0.934100  0.201200  1.0  -0.9035
  O  O3767  1  0.309300  0.864900  0.246800  1.0  -0.8034
  O  O3768  1  0.297100  0.865400  0.300400  1.0  -0.8653
  O  O3769  1  0.336500  0.842700  0.281900  1.0  -0.9658
  O  O3770  1  0.336800  0.971700  0.214100  1.0  -0.8204
  O  O3771  1  0.330400  0.944600  0.332200  1.0  -0.8157
  O  O3772  1  0.382000  0.973400  0.170000  1.0  -0.7722
  O  O3773  1  0.329500  0.893500  0.282900  1.0  -0.8204
  O  O3774  1  0.366100  0.926600  0.300400  1.0  -0.9128
  O  O3775  1  0.341300  0.969500  0.288300  1.0  -0.8584
  O  O3776  1  0.372500  0.972100  0.321700  1.0  -0.8545
  O  O3777  1  0.419100  0.249600  0.873900  1.0  -0.8054
  O  O3778  1  0.385900  0.213000  0.887300  1.0  -0.9695
  O  O3779  1  0.398300  0.218700  0.840900  1.0  -0.8021
  O  O3780  1  0.434100  0.201200  0.871200  1.0  -0.9051
  O  O3781  1  0.364900  0.246800  0.809300  1.0  -0.8043
  O  O3782  1  0.365400  0.300400  0.797100  1.0  -0.8642
  O  O3783  1  0.342700  0.281900  0.836500  1.0  -0.9654
  O  O3784  1  0.471700  0.214100  0.836800  1.0  -0.8175
  O  O3785  1  0.444600  0.332200  0.830400  1.0  -0.8139
  O  O3786  1  0.473400  0.170000  0.882000  1.0  -0.7715
  O  O3787  1  0.393500  0.282900  0.829500  1.0  -0.8195
  O  O3788  1  0.426600  0.300400  0.866100  1.0  -0.9138
  O  O3789  1  0.469500  0.288300  0.841300  1.0  -0.8576
  O  O3790  1  0.472100  0.321700  0.872500  1.0  -0.8569
  O  O3791  1  0.419100  0.749600  0.373900  1.0  -0.8054
  O  O3792  1  0.385900  0.713000  0.387300  1.0  -0.9695
  O  O3793  1  0.398300  0.718700  0.340900  1.0  -0.8021
  O  O3794  1  0.434100  0.701200  0.371200  1.0  -0.9051
  O  O3795  1  0.364900  0.746800  0.309300  1.0  -0.8043
  O  O3796  1  0.365400  0.800400  0.297100  1.0  -0.8642
  O  O3797  1  0.342700  0.781900  0.336500  1.0  -0.9654
  O  O3798  1  0.471700  0.714100  0.336800  1.0  -0.8175
  O  O3799  1  0.444600  0.832200  0.330400  1.0  -0.8139
  O  O3800  1  0.473400  0.670000  0.382000  1.0  -0.7715
  O  O3801  1  0.393500  0.782900  0.329500  1.0  -0.8195
  O  O3802  1  0.426600  0.800400  0.366100  1.0  -0.9138
  O  O3803  1  0.469500  0.788300  0.341300  1.0  -0.8576
  O  O3804  1  0.472100  0.821700  0.372500  1.0  -0.8569
  O  O3805  1  0.919100  0.249600  0.373900  1.0  -0.8054
  O  O3806  1  0.885900  0.213000  0.387300  1.0  -0.9695
  O  O3807  1  0.898300  0.218700  0.340900  1.0  -0.8021
  O  O3808  1  0.934100  0.201200  0.371200  1.0  -0.9051
  O  O3809  1  0.864900  0.246800  0.309300  1.0  -0.8043
  O  O3810  1  0.865400  0.300400  0.297100  1.0  -0.8642
  O  O3811  1  0.842700  0.281900  0.336500  1.0  -0.9654
  O  O3812  1  0.971700  0.214100  0.336800  1.0  -0.8175
  O  O3813  1  0.944600  0.332200  0.330400  1.0  -0.8139
  O  O3814  1  0.973400  0.170000  0.382000  1.0  -0.7715
  O  O3815  1  0.893500  0.282900  0.329500  1.0  -0.8195
  O  O3816  1  0.926600  0.300400  0.366100  1.0  -0.9138
  O  O3817  1  0.969500  0.288300  0.341300  1.0  -0.8576
  O  O3818  1  0.972100  0.321700  0.372500  1.0  -0.8569
  O  O3819  1  0.919100  0.749600  0.873900  1.0  -0.8054
  O  O3820  1  0.885900  0.713000  0.887300  1.0  -0.9695
  O  O3821  1  0.898300  0.718700  0.840900  1.0  -0.8021
  O  O3822  1  0.934100  0.701200  0.871200  1.0  -0.9051
  O  O3823  1  0.864900  0.746800  0.809300  1.0  -0.8043
  O  O3824  1  0.865400  0.800400  0.797100  1.0  -0.8642
  O  O3825  1  0.842700  0.781900  0.836500  1.0  -0.9654
  O  O3826  1  0.971700  0.714100  0.836800  1.0  -0.8175
  O  O3827  1  0.944600  0.832200  0.830400  1.0  -0.8139
  O  O3828  1  0.973400  0.670000  0.882000  1.0  -0.7715
  O  O3829  1  0.893500  0.782900  0.829500  1.0  -0.8195
  O  O3830  1  0.926600  0.800400  0.866100  1.0  -0.9138
  O  O3831  1  0.969500  0.788300  0.841300  1.0  -0.8576
  O  O3832  1  0.972100  0.821700  0.872500  1.0  -0.8569
  O  O3833  1  0.580900  0.249600  0.126100  1.0  -0.8053
  O  O3834  1  0.614100  0.213000  0.112700  1.0  -0.97
  O  O3835  1  0.601700  0.218700  0.159100  1.0  -0.8029
  O  O3836  1  0.565900  0.201200  0.128800  1.0  -0.9041
  O  O3837  1  0.635100  0.246800  0.190700  1.0  -0.8021
  O  O3838  1  0.634600  0.300400  0.202900  1.0  -0.8653
  O  O3839  1  0.657300  0.281900  0.163500  1.0  -0.9658
  O  O3840  1  0.528300  0.214100  0.163200  1.0  -0.8187
  O  O3841  1  0.555400  0.332200  0.169600  1.0  -0.814
  O  O3842  1  0.526600  0.170000  0.118000  1.0  -0.7704
  O  O3843  1  0.606500  0.282900  0.170500  1.0  -0.8184
  O  O3844  1  0.573400  0.300400  0.133900  1.0  -0.913
  O  O3845  1  0.530500  0.288300  0.158700  1.0  -0.8585
  O  O3846  1  0.527900  0.321700  0.127500  1.0  -0.8594
  O  O3847  1  0.580900  0.749600  0.626100  1.0  -0.8053
  O  O3848  1  0.614100  0.713000  0.612700  1.0  -0.97
  O  O3849  1  0.601700  0.718700  0.659100  1.0  -0.8029
  O  O3850  1  0.565900  0.701200  0.628800  1.0  -0.9041
  O  O3851  1  0.635100  0.746800  0.690700  1.0  -0.8021
  O  O3852  1  0.634600  0.800400  0.702900  1.0  -0.8653
  O  O3853  1  0.657300  0.781900  0.663500  1.0  -0.9658
  O  O3854  1  0.528300  0.714100  0.663200  1.0  -0.8187
  O  O3855  1  0.555400  0.832200  0.669600  1.0  -0.814
  O  O3856  1  0.526600  0.670000  0.618000  1.0  -0.7704
  O  O3857  1  0.606500  0.782900  0.670500  1.0  -0.8184
  O  O3858  1  0.573400  0.800400  0.633900  1.0  -0.913
  O  O3859  1  0.530500  0.788300  0.658700  1.0  -0.8585
  O  O3860  1  0.527900  0.821700  0.627500  1.0  -0.8594
  O  O3861  1  0.080900  0.249600  0.626100  1.0  -0.8053
  O  O3862  1  0.114100  0.213000  0.612700  1.0  -0.97
  O  O3863  1  0.101700  0.218700  0.659100  1.0  -0.8029
  O  O3864  1  0.065900  0.201200  0.628800  1.0  -0.9041
  O  O3865  1  0.135100  0.246800  0.690700  1.0  -0.8021
  O  O3866  1  0.134600  0.300400  0.702900  1.0  -0.8653
  O  O3867  1  0.157300  0.281900  0.663500  1.0  -0.9658
  O  O3868  1  0.028300  0.214100  0.663200  1.0  -0.8187
  O  O3869  1  0.055400  0.332200  0.669600  1.0  -0.814
  O  O3870  1  0.026600  0.170000  0.618000  1.0  -0.7704
  O  O3871  1  0.106500  0.282900  0.670500  1.0  -0.8184
  O  O3872  1  0.073400  0.300400  0.633900  1.0  -0.913
  O  O3873  1  0.030500  0.288300  0.658700  1.0  -0.8585
  O  O3874  1  0.027900  0.321700  0.627500  1.0  -0.8594
  O  O3875  1  0.080900  0.749600  0.126100  1.0  -0.8053
  O  O3876  1  0.114100  0.713000  0.112700  1.0  -0.97
  O  O3877  1  0.101700  0.718700  0.159100  1.0  -0.8029
  O  O3878  1  0.065900  0.701200  0.128800  1.0  -0.9041
  O  O3879  1  0.135100  0.746800  0.190700  1.0  -0.8021
  O  O3880  1  0.134600  0.800400  0.202900  1.0  -0.8653
  O  O3881  1  0.157300  0.781900  0.163500  1.0  -0.9658
  O  O3882  1  0.028300  0.714100  0.163200  1.0  -0.8187
  O  O3883  1  0.055400  0.832200  0.169600  1.0  -0.814
  O  O3884  1  0.026600  0.670000  0.118000  1.0  -0.7704
  O  O3885  1  0.106500  0.782900  0.170500  1.0  -0.8184
  O  O3886  1  0.073400  0.800400  0.133900  1.0  -0.913
  O  O3887  1  0.030500  0.788300  0.158700  1.0  -0.8585
  O  O3888  1  0.027900  0.821700  0.127500  1.0  -0.8594
  O  O3889  1  0.580900  0.750400  0.873900  1.0  -0.8063
  O  O3890  1  0.614100  0.787000  0.887300  1.0  -0.9711
  O  O3891  1  0.601700  0.781300  0.840900  1.0  -0.8012
  O  O3892  1  0.565900  0.798800  0.871200  1.0  -0.9058
  O  O3893  1  0.635100  0.753200  0.809300  1.0  -0.8043
  O  O3894  1  0.634600  0.699600  0.797100  1.0  -0.863
  O  O3895  1  0.657300  0.718100  0.836500  1.0  -0.9652
  O  O3896  1  0.528300  0.785900  0.836800  1.0  -0.8199
  O  O3897  1  0.555400  0.667800  0.830400  1.0  -0.8129
  O  O3898  1  0.526600  0.830000  0.882000  1.0  -0.7711
  O  O3899  1  0.606500  0.717100  0.829500  1.0  -0.8184
  O  O3900  1  0.573400  0.699600  0.866100  1.0  -0.9144
  O  O3901  1  0.530500  0.711700  0.841300  1.0  -0.8576
  O  O3902  1  0.527900  0.678300  0.872500  1.0  -0.8563
  O  O3903  1  0.580900  0.250400  0.373900  1.0  -0.8063
  O  O3904  1  0.614100  0.287000  0.387300  1.0  -0.9711
  O  O3905  1  0.601700  0.281300  0.340900  1.0  -0.8012
  O  O3906  1  0.565900  0.298800  0.371200  1.0  -0.9058
  O  O3907  1  0.635100  0.253200  0.309300  1.0  -0.8043
  O  O3908  1  0.634600  0.199600  0.297100  1.0  -0.863
  O  O3909  1  0.657300  0.218100  0.336500  1.0  -0.9652
  O  O3910  1  0.528300  0.285900  0.336800  1.0  -0.8199
  O  O3911  1  0.555400  0.167800  0.330400  1.0  -0.8129
  O  O3912  1  0.526600  0.330000  0.382000  1.0  -0.7711
  O  O3913  1  0.606500  0.217100  0.329500  1.0  -0.8184
  O  O3914  1  0.573400  0.199600  0.366100  1.0  -0.9144
  O  O3915  1  0.530500  0.211700  0.341300  1.0  -0.8576
  O  O3916  1  0.527900  0.178300  0.372500  1.0  -0.8563
  O  O3917  1  0.080900  0.750400  0.373900  1.0  -0.8063
  O  O3918  1  0.114100  0.787000  0.387300  1.0  -0.9711
  O  O3919  1  0.101700  0.781300  0.340900  1.0  -0.8012
  O  O3920  1  0.065900  0.798800  0.371200  1.0  -0.9058
  O  O3921  1  0.135100  0.753200  0.309300  1.0  -0.8043
  O  O3922  1  0.134600  0.699600  0.297100  1.0  -0.863
  O  O3923  1  0.157300  0.718100  0.336500  1.0  -0.9652
  O  O3924  1  0.028300  0.785900  0.336800  1.0  -0.8199
  O  O3925  1  0.055400  0.667800  0.330400  1.0  -0.8129
  O  O3926  1  0.026600  0.830000  0.382000  1.0  -0.7711
  O  O3927  1  0.106500  0.717100  0.329500  1.0  -0.8184
  O  O3928  1  0.073400  0.699600  0.366100  1.0  -0.9144
  O  O3929  1  0.030500  0.711700  0.341300  1.0  -0.8576
  O  O3930  1  0.027900  0.678300  0.372500  1.0  -0.8563
  O  O3931  1  0.080900  0.250400  0.873900  1.0  -0.8063
  O  O3932  1  0.114100  0.287000  0.887300  1.0  -0.9711
  O  O3933  1  0.101700  0.281300  0.840900  1.0  -0.8012
  O  O3934  1  0.065900  0.298800  0.871200  1.0  -0.9058
  O  O3935  1  0.135100  0.253200  0.809300  1.0  -0.8043
  O  O3936  1  0.134600  0.199600  0.797100  1.0  -0.863
  O  O3937  1  0.157300  0.218100  0.836500  1.0  -0.9652
  O  O3938  1  0.028300  0.285900  0.836800  1.0  -0.8199
  O  O3939  1  0.055400  0.167800  0.830400  1.0  -0.8129
  O  O3940  1  0.026600  0.330000  0.882000  1.0  -0.7711
  O  O3941  1  0.106500  0.217100  0.829500  1.0  -0.8184
  O  O3942  1  0.073400  0.199600  0.866100  1.0  -0.9144
  O  O3943  1  0.030500  0.211700  0.841300  1.0  -0.8576
  O  O3944  1  0.027900  0.178300  0.872500  1.0  -0.8563
  O  O3945  1  0.419100  0.750400  0.126100  1.0  -0.8051
  O  O3946  1  0.385900  0.787000  0.112700  1.0  -0.9693
  O  O3947  1  0.398300  0.781300  0.159100  1.0  -0.8035
  O  O3948  1  0.434100  0.798800  0.128800  1.0  -0.9033
  O  O3949  1  0.364900  0.753200  0.190700  1.0  -0.8023
  O  O3950  1  0.365400  0.699600  0.202900  1.0  -0.866
  O  O3951  1  0.342700  0.718100  0.163500  1.0  -0.9648
  O  O3952  1  0.471700  0.785900  0.163200  1.0  -0.8184
  O  O3953  1  0.444600  0.667800  0.169600  1.0  -0.8147
  O  O3954  1  0.473400  0.830000  0.118000  1.0  -0.7697
  O  O3955  1  0.393500  0.717100  0.170500  1.0  -0.8194
  O  O3956  1  0.426600  0.699600  0.133900  1.0  -0.9132
  O  O3957  1  0.469500  0.711700  0.158700  1.0  -0.8579
  O  O3958  1  0.472100  0.678300  0.127500  1.0  -0.8605
  O  O3959  1  0.419100  0.250400  0.626100  1.0  -0.8051
  O  O3960  1  0.385900  0.287000  0.612700  1.0  -0.9693
  O  O3961  1  0.398300  0.281300  0.659100  1.0  -0.8035
  O  O3962  1  0.434100  0.298800  0.628800  1.0  -0.9033
  O  O3963  1  0.364900  0.253200  0.690700  1.0  -0.8023
  O  O3964  1  0.365400  0.199600  0.702900  1.0  -0.866
  O  O3965  1  0.342700  0.218100  0.663500  1.0  -0.9648
  O  O3966  1  0.471700  0.285900  0.663200  1.0  -0.8184
  O  O3967  1  0.444600  0.167800  0.669600  1.0  -0.8147
  O  O3968  1  0.473400  0.330000  0.618000  1.0  -0.7697
  O  O3969  1  0.393500  0.217100  0.670500  1.0  -0.8194
  O  O3970  1  0.426600  0.199600  0.633900  1.0  -0.9132
  O  O3971  1  0.469500  0.211700  0.658700  1.0  -0.8579
  O  O3972  1  0.472100  0.178300  0.627500  1.0  -0.8605
  O  O3973  1  0.919100  0.750400  0.626100  1.0  -0.8051
  O  O3974  1  0.885900  0.787000  0.612700  1.0  -0.9693
  O  O3975  1  0.898300  0.781300  0.659100  1.0  -0.8035
  O  O3976  1  0.934100  0.798800  0.628800  1.0  -0.9033
  O  O3977  1  0.864900  0.753200  0.690700  1.0  -0.8023
  O  O3978  1  0.865400  0.699600  0.702900  1.0  -0.866
  O  O3979  1  0.842700  0.718100  0.663500  1.0  -0.9648
  O  O3980  1  0.971700  0.785900  0.663200  1.0  -0.8184
  O  O3981  1  0.944600  0.667800  0.669600  1.0  -0.8147
  O  O3982  1  0.973400  0.830000  0.618000  1.0  -0.7697
  O  O3983  1  0.893500  0.717100  0.670500  1.0  -0.8194
  O  O3984  1  0.926600  0.699600  0.633900  1.0  -0.9132
  O  O3985  1  0.969500  0.711700  0.658700  1.0  -0.8579
  O  O3986  1  0.972100  0.678300  0.627500  1.0  -0.8605
  O  O3987  1  0.919100  0.250400  0.126100  1.0  -0.8051
  O  O3988  1  0.885900  0.287000  0.112700  1.0  -0.9693
  O  O3989  1  0.898300  0.281300  0.159100  1.0  -0.8035
  O  O3990  1  0.934100  0.298800  0.128800  1.0  -0.9033
  O  O3991  1  0.864900  0.253200  0.190700  1.0  -0.8023
  O  O3992  1  0.865400  0.199600  0.202900  1.0  -0.866
  O  O3993  1  0.842700  0.218100  0.163500  1.0  -0.9648
  O  O3994  1  0.971700  0.285900  0.163200  1.0  -0.8184
  O  O3995  1  0.944600  0.167800  0.169600  1.0  -0.8147
  O  O3996  1  0.973400  0.330000  0.118000  1.0  -0.7697
  O  O3997  1  0.893500  0.217100  0.170500  1.0  -0.8194
  O  O3998  1  0.926600  0.199600  0.133900  1.0  -0.9132
  O  O3999  1  0.969500  0.211700  0.158700  1.0  -0.8579
  O  O4000  1  0.972100  0.178300  0.127500  1.0  -0.8605
  O  O4001  1  0.249600  0.126100  0.580900  1.0  -0.8068
  O  O4002  1  0.213000  0.112700  0.614100  1.0  -0.9697
  O  O4003  1  0.218700  0.159100  0.601700  1.0  -0.8021
  O  O4004  1  0.201200  0.128800  0.565900  1.0  -0.9056
  O  O4005  1  0.246800  0.190700  0.635100  1.0  -0.804
  O  O4006  1  0.300400  0.202900  0.634600  1.0  -0.8645
  O  O4007  1  0.281900  0.163500  0.657300  1.0  -0.9668
  O  O4008  1  0.214100  0.163200  0.528300  1.0  -0.82
  O  O4009  1  0.332200  0.169600  0.555400  1.0  -0.8143
  O  O4010  1  0.170000  0.118000  0.526600  1.0  -0.7742
  O  O4011  1  0.282900  0.170500  0.606500  1.0  -0.8199
  O  O4012  1  0.300400  0.133900  0.573400  1.0  -0.9128
  O  O4013  1  0.288300  0.158700  0.530500  1.0  -0.8562
  O  O4014  1  0.321700  0.127500  0.527900  1.0  -0.8592
  O  O4015  1  0.249600  0.626100  0.080900  1.0  -0.8068
  O  O4016  1  0.213000  0.612700  0.114100  1.0  -0.9697
  O  O4017  1  0.218700  0.659100  0.101700  1.0  -0.8021
  O  O4018  1  0.201200  0.628800  0.065900  1.0  -0.9056
  O  O4019  1  0.246800  0.690700  0.135100  1.0  -0.804
  O  O4020  1  0.300400  0.702900  0.134600  1.0  -0.8645
  O  O4021  1  0.281900  0.663500  0.157300  1.0  -0.9668
  O  O4022  1  0.214100  0.663200  0.028300  1.0  -0.82
  O  O4023  1  0.332200  0.669600  0.055400  1.0  -0.8143
  O  O4024  1  0.170000  0.618000  0.026600  1.0  -0.7742
  O  O4025  1  0.282900  0.670500  0.106500  1.0  -0.8199
  O  O4026  1  0.300400  0.633900  0.073400  1.0  -0.9128
  O  O4027  1  0.288300  0.658700  0.030500  1.0  -0.8562
  O  O4028  1  0.321700  0.627500  0.027900  1.0  -0.8592
  O  O4029  1  0.749600  0.126100  0.080900  1.0  -0.8068
  O  O4030  1  0.713000  0.112700  0.114100  1.0  -0.9697
  O  O4031  1  0.718700  0.159100  0.101700  1.0  -0.8021
  O  O4032  1  0.701200  0.128800  0.065900  1.0  -0.9056
  O  O4033  1  0.746800  0.190700  0.135100  1.0  -0.804
  O  O4034  1  0.800400  0.202900  0.134600  1.0  -0.8645
  O  O4035  1  0.781900  0.163500  0.157300  1.0  -0.9668
  O  O4036  1  0.714100  0.163200  0.028300  1.0  -0.82
  O  O4037  1  0.832200  0.169600  0.055400  1.0  -0.8143
  O  O4038  1  0.670000  0.118000  0.026600  1.0  -0.7742
  O  O4039  1  0.782900  0.170500  0.106500  1.0  -0.8199
  O  O4040  1  0.800400  0.133900  0.073400  1.0  -0.9128
  O  O4041  1  0.788300  0.158700  0.030500  1.0  -0.8562
  O  O4042  1  0.821700  0.127500  0.027900  1.0  -0.8592
  O  O4043  1  0.749600  0.626100  0.580900  1.0  -0.8068
  O  O4044  1  0.713000  0.612700  0.614100  1.0  -0.9697
  O  O4045  1  0.718700  0.659100  0.601700  1.0  -0.8021
  O  O4046  1  0.701200  0.628800  0.565900  1.0  -0.9056
  O  O4047  1  0.746800  0.690700  0.635100  1.0  -0.804
  O  O4048  1  0.800400  0.702900  0.634600  1.0  -0.8645
  O  O4049  1  0.781900  0.663500  0.657300  1.0  -0.9668
  O  O4050  1  0.714100  0.663200  0.528300  1.0  -0.82
  O  O4051  1  0.832200  0.669600  0.555400  1.0  -0.8143
  O  O4052  1  0.670000  0.618000  0.526600  1.0  -0.7742
  O  O4053  1  0.782900  0.670500  0.606500  1.0  -0.8199
  O  O4054  1  0.800400  0.633900  0.573400  1.0  -0.9128
  O  O4055  1  0.788300  0.658700  0.530500  1.0  -0.8562
  O  O4056  1  0.821700  0.627500  0.527900  1.0  -0.8592
  O  O4057  1  0.249600  0.873900  0.419100  1.0  -0.8071
  O  O4058  1  0.213000  0.887300  0.385900  1.0  -0.9694
  O  O4059  1  0.218700  0.840900  0.398300  1.0  -0.8022
  O  O4060  1  0.201200  0.871200  0.434100  1.0  -0.9068
  O  O4061  1  0.246800  0.809300  0.364900  1.0  -0.8042
  O  O4062  1  0.300400  0.797100  0.365400  1.0  -0.865
  O  O4063  1  0.281900  0.836500  0.342700  1.0  -0.966
  O  O4064  1  0.214100  0.836800  0.471700  1.0  -0.8191
  O  O4065  1  0.332200  0.830400  0.444600  1.0  -0.8153
  O  O4066  1  0.170000  0.882000  0.473400  1.0  -0.7763
  O  O4067  1  0.282900  0.829500  0.393500  1.0  -0.8214
  O  O4068  1  0.300400  0.866100  0.426600  1.0  -0.9131
  O  O4069  1  0.288300  0.841300  0.469500  1.0  -0.856
  O  O4070  1  0.321700  0.872500  0.472100  1.0  -0.8615
  O  O4071  1  0.249600  0.373900  0.919100  1.0  -0.8071
  O  O4072  1  0.213000  0.387300  0.885900  1.0  -0.9694
  O  O4073  1  0.218700  0.340900  0.898300  1.0  -0.8022
  O  O4074  1  0.201200  0.371200  0.934100  1.0  -0.9068
  O  O4075  1  0.246800  0.309300  0.864900  1.0  -0.8042
  O  O4076  1  0.300400  0.297100  0.865400  1.0  -0.865
  O  O4077  1  0.281900  0.336500  0.842700  1.0  -0.966
  O  O4078  1  0.214100  0.336800  0.971700  1.0  -0.8191
  O  O4079  1  0.332200  0.330400  0.944600  1.0  -0.8153
  O  O4080  1  0.170000  0.382000  0.973400  1.0  -0.7763
  O  O4081  1  0.282900  0.329500  0.893500  1.0  -0.8214
  O  O4082  1  0.300400  0.366100  0.926600  1.0  -0.9131
  O  O4083  1  0.288300  0.341300  0.969500  1.0  -0.856
  O  O4084  1  0.321700  0.372500  0.972100  1.0  -0.8615
  O  O4085  1  0.749600  0.873900  0.919100  1.0  -0.8071
  O  O4086  1  0.713000  0.887300  0.885900  1.0  -0.9694
  O  O4087  1  0.718700  0.840900  0.898300  1.0  -0.8022
  O  O4088  1  0.701200  0.871200  0.934100  1.0  -0.9068
  O  O4089  1  0.746800  0.809300  0.864900  1.0  -0.8042
  O  O4090  1  0.800400  0.797100  0.865400  1.0  -0.865
  O  O4091  1  0.781900  0.836500  0.842700  1.0  -0.966
  O  O4092  1  0.714100  0.836800  0.971700  1.0  -0.8191
  O  O4093  1  0.832200  0.830400  0.944600  1.0  -0.8153
  O  O4094  1  0.670000  0.882000  0.973400  1.0  -0.7763
  O  O4095  1  0.782900  0.829500  0.893500  1.0  -0.8214
  O  O4096  1  0.800400  0.866100  0.926600  1.0  -0.9131
  O  O4097  1  0.788300  0.841300  0.969500  1.0  -0.856
  O  O4098  1  0.821700  0.872500  0.972100  1.0  -0.8615
  O  O4099  1  0.749600  0.373900  0.419100  1.0  -0.8071
  O  O4100  1  0.713000  0.387300  0.385900  1.0  -0.9694
  O  O4101  1  0.718700  0.340900  0.398300  1.0  -0.8022
  O  O4102  1  0.701200  0.371200  0.434100  1.0  -0.9068
  O  O4103  1  0.746800  0.309300  0.364900  1.0  -0.8042
  O  O4104  1  0.800400  0.297100  0.365400  1.0  -0.865
  O  O4105  1  0.781900  0.336500  0.342700  1.0  -0.966
  O  O4106  1  0.714100  0.336800  0.471700  1.0  -0.8191
  O  O4107  1  0.832200  0.330400  0.444600  1.0  -0.8153
  O  O4108  1  0.670000  0.382000  0.473400  1.0  -0.7763
  O  O4109  1  0.782900  0.329500  0.393500  1.0  -0.8214
  O  O4110  1  0.800400  0.366100  0.426600  1.0  -0.9131
  O  O4111  1  0.788300  0.341300  0.469500  1.0  -0.856
  O  O4112  1  0.821700  0.372500  0.472100  1.0  -0.8615
  O  O4113  1  0.750400  0.126100  0.419100  1.0  -0.8073
  O  O4114  1  0.787000  0.112700  0.385900  1.0  -0.9699
  O  O4115  1  0.781300  0.159100  0.398300  1.0  -0.8028
  O  O4116  1  0.798800  0.128800  0.434100  1.0  -0.905
  O  O4117  1  0.753200  0.190700  0.364900  1.0  -0.8034
  O  O4118  1  0.699600  0.202900  0.365400  1.0  -0.8638
  O  O4119  1  0.718100  0.163500  0.342700  1.0  -0.9645
  O  O4120  1  0.785900  0.163200  0.471700  1.0  -0.8178
  O  O4121  1  0.667800  0.169600  0.444600  1.0  -0.8154
  O  O4122  1  0.830000  0.118000  0.473400  1.0  -0.7744
  O  O4123  1  0.717100  0.170500  0.393500  1.0  -0.8214
  O  O4124  1  0.699600  0.133900  0.426600  1.0  -0.911
  O  O4125  1  0.711700  0.158700  0.469500  1.0  -0.8568
  O  O4126  1  0.678300  0.127500  0.472100  1.0  -0.8602
  O  O4127  1  0.750400  0.626100  0.919100  1.0  -0.8073
  O  O4128  1  0.787000  0.612700  0.885900  1.0  -0.9699
  O  O4129  1  0.781300  0.659100  0.898300  1.0  -0.8028
  O  O4130  1  0.798800  0.628800  0.934100  1.0  -0.905
  O  O4131  1  0.753200  0.690700  0.864900  1.0  -0.8034
  O  O4132  1  0.699600  0.702900  0.865400  1.0  -0.8638
  O  O4133  1  0.718100  0.663500  0.842700  1.0  -0.9645
  O  O4134  1  0.785900  0.663200  0.971700  1.0  -0.8178
  O  O4135  1  0.667800  0.669600  0.944600  1.0  -0.8154
  O  O4136  1  0.830000  0.618000  0.973400  1.0  -0.7744
  O  O4137  1  0.717100  0.670500  0.893500  1.0  -0.8214
  O  O4138  1  0.699600  0.633900  0.926600  1.0  -0.911
  O  O4139  1  0.711700  0.658700  0.969500  1.0  -0.8568
  O  O4140  1  0.678300  0.627500  0.972100  1.0  -0.8602
  O  O4141  1  0.250400  0.126100  0.919100  1.0  -0.8073
  O  O4142  1  0.287000  0.112700  0.885900  1.0  -0.9699
  O  O4143  1  0.281300  0.159100  0.898300  1.0  -0.8028
  O  O4144  1  0.298800  0.128800  0.934100  1.0  -0.905
  O  O4145  1  0.253200  0.190700  0.864900  1.0  -0.8034
  O  O4146  1  0.199600  0.202900  0.865400  1.0  -0.8638
  O  O4147  1  0.218100  0.163500  0.842700  1.0  -0.9645
  O  O4148  1  0.285900  0.163200  0.971700  1.0  -0.8178
  O  O4149  1  0.167800  0.169600  0.944600  1.0  -0.8154
  O  O4150  1  0.330000  0.118000  0.973400  1.0  -0.7744
  O  O4151  1  0.217100  0.170500  0.893500  1.0  -0.8214
  O  O4152  1  0.199600  0.133900  0.926600  1.0  -0.911
  O  O4153  1  0.211700  0.158700  0.969500  1.0  -0.8568
  O  O4154  1  0.178300  0.127500  0.972100  1.0  -0.8602
  O  O4155  1  0.250400  0.626100  0.419100  1.0  -0.8073
  O  O4156  1  0.287000  0.612700  0.385900  1.0  -0.9699
  O  O4157  1  0.281300  0.659100  0.398300  1.0  -0.8028
  O  O4158  1  0.298800  0.628800  0.434100  1.0  -0.905
  O  O4159  1  0.253200  0.690700  0.364900  1.0  -0.8034
  O  O4160  1  0.199600  0.702900  0.365400  1.0  -0.8638
  O  O4161  1  0.218100  0.663500  0.342700  1.0  -0.9645
  O  O4162  1  0.285900  0.663200  0.471700  1.0  -0.8178
  O  O4163  1  0.167800  0.669600  0.444600  1.0  -0.8154
  O  O4164  1  0.330000  0.618000  0.473400  1.0  -0.7744
  O  O4165  1  0.217100  0.670500  0.393500  1.0  -0.8214
  O  O4166  1  0.199600  0.633900  0.426600  1.0  -0.911
  O  O4167  1  0.211700  0.658700  0.469500  1.0  -0.8568
  O  O4168  1  0.178300  0.627500  0.472100  1.0  -0.8602
  O  O4169  1  0.750400  0.873900  0.580900  1.0  -0.8081
  O  O4170  1  0.787000  0.887300  0.614100  1.0  -0.9702
  O  O4171  1  0.781300  0.840900  0.601700  1.0  -0.8028
  O  O4172  1  0.798800  0.871200  0.565900  1.0  -0.9051
  O  O4173  1  0.753200  0.809300  0.635100  1.0  -0.8042
  O  O4174  1  0.699600  0.797100  0.634600  1.0  -0.8644
  O  O4175  1  0.718100  0.836500  0.657300  1.0  -0.9662
  O  O4176  1  0.785900  0.836800  0.528300  1.0  -0.8188
  O  O4177  1  0.667800  0.830400  0.555400  1.0  -0.8153
  O  O4178  1  0.830000  0.882000  0.526600  1.0  -0.7759
  O  O4179  1  0.717100  0.829500  0.606500  1.0  -0.8208
  O  O4180  1  0.699600  0.866100  0.573400  1.0  -0.9109
  O  O4181  1  0.711700  0.841300  0.530500  1.0  -0.8571
  O  O4182  1  0.678300  0.872500  0.527900  1.0  -0.8619
  O  O4183  1  0.750400  0.373900  0.080900  1.0  -0.8081
  O  O4184  1  0.787000  0.387300  0.114100  1.0  -0.9702
  O  O4185  1  0.781300  0.340900  0.101700  1.0  -0.8028
  O  O4186  1  0.798800  0.371200  0.065900  1.0  -0.9051
  O  O4187  1  0.753200  0.309300  0.135100  1.0  -0.8042
  O  O4188  1  0.699600  0.297100  0.134600  1.0  -0.8644
  O  O4189  1  0.718100  0.336500  0.157300  1.0  -0.9662
  O  O4190  1  0.785900  0.336800  0.028300  1.0  -0.8188
  O  O4191  1  0.667800  0.330400  0.055400  1.0  -0.8153
  O  O4192  1  0.830000  0.382000  0.026600  1.0  -0.7759
  O  O4193  1  0.717100  0.329500  0.106500  1.0  -0.8208
  O  O4194  1  0.699600  0.366100  0.073400  1.0  -0.9109
  O  O4195  1  0.711700  0.341300  0.030500  1.0  -0.8571
  O  O4196  1  0.678300  0.372500  0.027900  1.0  -0.8619
  O  O4197  1  0.250400  0.873900  0.080900  1.0  -0.8081
  O  O4198  1  0.287000  0.887300  0.114100  1.0  -0.9702
  O  O4199  1  0.281300  0.840900  0.101700  1.0  -0.8028
  O  O4200  1  0.298800  0.871200  0.065900  1.0  -0.9051
  O  O4201  1  0.253200  0.809300  0.135100  1.0  -0.8042
  O  O4202  1  0.199600  0.797100  0.134600  1.0  -0.8644
  O  O4203  1  0.218100  0.836500  0.157300  1.0  -0.9662
  O  O4204  1  0.285900  0.836800  0.028300  1.0  -0.8188
  O  O4205  1  0.167800  0.830400  0.055400  1.0  -0.8153
  O  O4206  1  0.330000  0.882000  0.026600  1.0  -0.7759
  O  O4207  1  0.217100  0.829500  0.106500  1.0  -0.8208
  O  O4208  1  0.199600  0.866100  0.073400  1.0  -0.9109
  O  O4209  1  0.211700  0.841300  0.030500  1.0  -0.8571
  O  O4210  1  0.178300  0.872500  0.027900  1.0  -0.8619
  O  O4211  1  0.250400  0.373900  0.580900  1.0  -0.8081
  O  O4212  1  0.287000  0.387300  0.614100  1.0  -0.9702
  O  O4213  1  0.281300  0.340900  0.601700  1.0  -0.8028
  O  O4214  1  0.298800  0.371200  0.565900  1.0  -0.9051
  O  O4215  1  0.253200  0.309300  0.635100  1.0  -0.8042
  O  O4216  1  0.199600  0.297100  0.634600  1.0  -0.8644
  O  O4217  1  0.218100  0.336500  0.657300  1.0  -0.9662
  O  O4218  1  0.285900  0.336800  0.528300  1.0  -0.8188
  O  O4219  1  0.167800  0.330400  0.555400  1.0  -0.8153
  O  O4220  1  0.330000  0.382000  0.526600  1.0  -0.7759
  O  O4221  1  0.217100  0.329500  0.606500  1.0  -0.8208
  O  O4222  1  0.199600  0.366100  0.573400  1.0  -0.9109
  O  O4223  1  0.211700  0.341300  0.530500  1.0  -0.8571
  O  O4224  1  0.178300  0.372500  0.527900  1.0  -0.8619
  O  O4225  1  0.000000  0.321100  0.248200  1.0  -0.8229
  O  O4226  1  0.000000  0.294100  0.291000  1.0  -0.7696
  O  O4227  1  0.000000  0.374400  0.371900  1.0  -0.7374
  O  O4228  1  0.000000  0.420200  0.350900  1.0  -0.5644
  O  O4229  1  0.000000  0.821100  0.748200  1.0  -0.8229
  O  O4230  1  0.000000  0.794100  0.791000  1.0  -0.7696
  O  O4231  1  0.000000  0.874400  0.871900  1.0  -0.7374
  O  O4232  1  0.000000  0.920200  0.850900  1.0  -0.5644
  O  O4233  1  0.500000  0.321100  0.748200  1.0  -0.8229
  O  O4234  1  0.500000  0.294100  0.791000  1.0  -0.7696
  O  O4235  1  0.500000  0.374400  0.871900  1.0  -0.7374
  O  O4236  1  0.500000  0.420200  0.850900  1.0  -0.5644
  O  O4237  1  0.500000  0.821100  0.248200  1.0  -0.8229
  O  O4238  1  0.500000  0.794100  0.291000  1.0  -0.7696
  O  O4239  1  0.500000  0.874400  0.371900  1.0  -0.7374
  O  O4240  1  0.500000  0.920200  0.350900  1.0  -0.5644
  O  O4241  1  0.000000  0.678900  0.248200  1.0  -0.8234
  O  O4242  1  0.000000  0.705900  0.291000  1.0  -0.7671
  O  O4243  1  0.000000  0.625600  0.371900  1.0  -0.7374
  O  O4244  1  0.000000  0.579800  0.350900  1.0  -0.5644
  O  O4245  1  0.000000  0.178900  0.748200  1.0  -0.8234
  O  O4246  1  0.000000  0.205900  0.791000  1.0  -0.7671
  O  O4247  1  0.000000  0.125600  0.871900  1.0  -0.7374
  O  O4248  1  0.000000  0.079800  0.850900  1.0  -0.5644
  O  O4249  1  0.500000  0.678900  0.748200  1.0  -0.8234
  O  O4250  1  0.500000  0.705900  0.791000  1.0  -0.7671
  O  O4251  1  0.500000  0.625600  0.871900  1.0  -0.7374
  O  O4252  1  0.500000  0.579800  0.850900  1.0  -0.5644
  O  O4253  1  0.500000  0.178900  0.248200  1.0  -0.8234
  O  O4254  1  0.500000  0.205900  0.291000  1.0  -0.7671
  O  O4255  1  0.500000  0.125600  0.371900  1.0  -0.7374
  O  O4256  1  0.500000  0.079800  0.350900  1.0  -0.5644
  O  O4257  1  0.000000  0.321100  0.751800  1.0  -0.8236
  O  O4258  1  0.000000  0.294100  0.709000  1.0  -0.7705
  O  O4259  1  0.000000  0.374400  0.628100  1.0  -0.7394
  O  O4260  1  0.000000  0.420200  0.649100  1.0  -0.5645
  O  O4261  1  0.000000  0.821100  0.251800  1.0  -0.8236
  O  O4262  1  0.000000  0.794100  0.209000  1.0  -0.7705
  O  O4263  1  0.000000  0.874400  0.128100  1.0  -0.7394
  O  O4264  1  0.000000  0.920200  0.149100  1.0  -0.5645
  O  O4265  1  0.500000  0.321100  0.251800  1.0  -0.8236
  O  O4266  1  0.500000  0.294100  0.209000  1.0  -0.7705
  O  O4267  1  0.500000  0.374400  0.128100  1.0  -0.7394
  O  O4268  1  0.500000  0.420200  0.149100  1.0  -0.5645
  O  O4269  1  0.500000  0.821100  0.751800  1.0  -0.8236
  O  O4270  1  0.500000  0.794100  0.709000  1.0  -0.7705
  O  O4271  1  0.500000  0.874400  0.628100  1.0  -0.7394
  O  O4272  1  0.500000  0.920200  0.649100  1.0  -0.5645
  O  O4273  1  0.000000  0.678900  0.751800  1.0  -0.824
  O  O4274  1  0.000000  0.705900  0.709000  1.0  -0.7673
  O  O4275  1  0.000000  0.625600  0.628100  1.0  -0.7376
  O  O4276  1  0.000000  0.579800  0.649100  1.0  -0.5642
  O  O4277  1  0.000000  0.178900  0.251800  1.0  -0.824
  O  O4278  1  0.000000  0.205900  0.209000  1.0  -0.7673
  O  O4279  1  0.000000  0.125600  0.128100  1.0  -0.7376
  O  O4280  1  0.000000  0.079800  0.149100  1.0  -0.5642
  O  O4281  1  0.500000  0.678900  0.251800  1.0  -0.824
  O  O4282  1  0.500000  0.705900  0.209000  1.0  -0.7673
  O  O4283  1  0.500000  0.625600  0.128100  1.0  -0.7376
  O  O4284  1  0.500000  0.579800  0.149100  1.0  -0.5642
  O  O4285  1  0.500000  0.178900  0.751800  1.0  -0.824
  O  O4286  1  0.500000  0.205900  0.709000  1.0  -0.7673
  O  O4287  1  0.500000  0.125600  0.628100  1.0  -0.7376
  O  O4288  1  0.500000  0.079800  0.649100  1.0  -0.5642
  O  O4289  1  0.248200  0.000000  0.321100  1.0  -0.8231
  O  O4290  1  0.291000  0.000000  0.294100  1.0  -0.7666
  O  O4291  1  0.371900  0.000000  0.374400  1.0  -0.7303
  O  O4292  1  0.350900  0.000000  0.420200  1.0  -0.5635
  O  O4293  1  0.248200  0.500000  0.821100  1.0  -0.8231
  O  O4294  1  0.291000  0.500000  0.794100  1.0  -0.7666
  O  O4295  1  0.371900  0.500000  0.874400  1.0  -0.7303
  O  O4296  1  0.350900  0.500000  0.920200  1.0  -0.5635
  O  O4297  1  0.748200  0.000000  0.821100  1.0  -0.8231
  O  O4298  1  0.791000  0.000000  0.794100  1.0  -0.7666
  O  O4299  1  0.871900  0.000000  0.874400  1.0  -0.7303
  O  O4300  1  0.850900  0.000000  0.920200  1.0  -0.5635
  O  O4301  1  0.748200  0.500000  0.321100  1.0  -0.8231
  O  O4302  1  0.791000  0.500000  0.294100  1.0  -0.7666
  O  O4303  1  0.871900  0.500000  0.374400  1.0  -0.7303
  O  O4304  1  0.850900  0.500000  0.420200  1.0  -0.5635
  O  O4305  1  0.248200  0.000000  0.678900  1.0  -0.8223
  O  O4306  1  0.291000  0.000000  0.705900  1.0  -0.7677
  O  O4307  1  0.371900  0.000000  0.625600  1.0  -0.7309
  O  O4308  1  0.350900  0.000000  0.579800  1.0  -0.5677
  O  O4309  1  0.248200  0.500000  0.178900  1.0  -0.8223
  O  O4310  1  0.291000  0.500000  0.205900  1.0  -0.7677
  O  O4311  1  0.371900  0.500000  0.125600  1.0  -0.7309
  O  O4312  1  0.350900  0.500000  0.079800  1.0  -0.5677
  O  O4313  1  0.748200  0.000000  0.178900  1.0  -0.8223
  O  O4314  1  0.791000  0.000000  0.205900  1.0  -0.7677
  O  O4315  1  0.871900  0.000000  0.125600  1.0  -0.7309
  O  O4316  1  0.850900  0.000000  0.079800  1.0  -0.5677
  O  O4317  1  0.748200  0.500000  0.678900  1.0  -0.8223
  O  O4318  1  0.791000  0.500000  0.705900  1.0  -0.7677
  O  O4319  1  0.871900  0.500000  0.625600  1.0  -0.7309
  O  O4320  1  0.850900  0.500000  0.579800  1.0  -0.5677
  O  O4321  1  0.751800  0.000000  0.321100  1.0  -0.823
  O  O4322  1  0.709000  0.000000  0.294100  1.0  -0.7666
  O  O4323  1  0.628100  0.000000  0.374400  1.0  -0.7284
  O  O4324  1  0.649100  0.000000  0.420200  1.0  -0.5638
  O  O4325  1  0.751800  0.500000  0.821100  1.0  -0.823
  O  O4326  1  0.709000  0.500000  0.794100  1.0  -0.7666
  O  O4327  1  0.628100  0.500000  0.874400  1.0  -0.7284
  O  O4328  1  0.649100  0.500000  0.920200  1.0  -0.5638
  O  O4329  1  0.251800  0.000000  0.821100  1.0  -0.823
  O  O4330  1  0.209000  0.000000  0.794100  1.0  -0.7666
  O  O4331  1  0.128100  0.000000  0.874400  1.0  -0.7284
  O  O4332  1  0.149100  0.000000  0.920200  1.0  -0.5638
  O  O4333  1  0.251800  0.500000  0.321100  1.0  -0.823
  O  O4334  1  0.209000  0.500000  0.294100  1.0  -0.7666
  O  O4335  1  0.128100  0.500000  0.374400  1.0  -0.7284
  O  O4336  1  0.149100  0.500000  0.420200  1.0  -0.5638
  O  O4337  1  0.751800  0.000000  0.678900  1.0  -0.8224
  O  O4338  1  0.709000  0.000000  0.705900  1.0  -0.7676
  O  O4339  1  0.628100  0.000000  0.625600  1.0  -0.7295
  O  O4340  1  0.649100  0.000000  0.579800  1.0  -0.5679
  O  O4341  1  0.751800  0.500000  0.178900  1.0  -0.8224
  O  O4342  1  0.709000  0.500000  0.205900  1.0  -0.7676
  O  O4343  1  0.628100  0.500000  0.125600  1.0  -0.7295
  O  O4344  1  0.649100  0.500000  0.079800  1.0  -0.5679
  O  O4345  1  0.251800  0.000000  0.178900  1.0  -0.8224
  O  O4346  1  0.209000  0.000000  0.205900  1.0  -0.7676
  O  O4347  1  0.128100  0.000000  0.125600  1.0  -0.7295
  O  O4348  1  0.149100  0.000000  0.079800  1.0  -0.5679
  O  O4349  1  0.251800  0.500000  0.678900  1.0  -0.8224
  O  O4350  1  0.209000  0.500000  0.705900  1.0  -0.7676
  O  O4351  1  0.128100  0.500000  0.625600  1.0  -0.7295
  O  O4352  1  0.149100  0.500000  0.579800  1.0  -0.5679
  O  O4353  1  0.321100  0.248200  0.000000  1.0  -0.8232
  O  O4354  1  0.294100  0.291000  0.000000  1.0  -0.7696
  O  O4355  1  0.374400  0.371900  0.000000  1.0  -0.7333
  O  O4356  1  0.420200  0.350900  0.000000  1.0  -0.5619
  O  O4357  1  0.321100  0.748200  0.500000  1.0  -0.8232
  O  O4358  1  0.294100  0.791000  0.500000  1.0  -0.7696
  O  O4359  1  0.374400  0.871900  0.500000  1.0  -0.7333
  O  O4360  1  0.420200  0.850900  0.500000  1.0  -0.5619
  O  O4361  1  0.821100  0.248200  0.500000  1.0  -0.8232
  O  O4362  1  0.794100  0.291000  0.500000  1.0  -0.7696
  O  O4363  1  0.874400  0.371900  0.500000  1.0  -0.7333
  O  O4364  1  0.920200  0.350900  0.500000  1.0  -0.5619
  O  O4365  1  0.821100  0.748200  0.000000  1.0  -0.8232
  O  O4366  1  0.794100  0.791000  0.000000  1.0  -0.7696
  O  O4367  1  0.874400  0.871900  0.000000  1.0  -0.7333
  O  O4368  1  0.920200  0.850900  0.000000  1.0  -0.5619
  O  O4369  1  0.678900  0.248200  0.000000  1.0  -0.8219
  O  O4370  1  0.705900  0.291000  0.000000  1.0  -0.7713
  O  O4371  1  0.625600  0.371900  0.000000  1.0  -0.7341
  O  O4372  1  0.579800  0.350900  0.000000  1.0  -0.5581
  O  O4373  1  0.678900  0.748200  0.500000  1.0  -0.8219
  O  O4374  1  0.705900  0.791000  0.500000  1.0  -0.7713
  O  O4375  1  0.625600  0.871900  0.500000  1.0  -0.7341
  O  O4376  1  0.579800  0.850900  0.500000  1.0  -0.5581
  O  O4377  1  0.178900  0.248200  0.500000  1.0  -0.8219
  O  O4378  1  0.205900  0.291000  0.500000  1.0  -0.7713
  O  O4379  1  0.125600  0.371900  0.500000  1.0  -0.7341
  O  O4380  1  0.079800  0.350900  0.500000  1.0  -0.5581
  O  O4381  1  0.178900  0.748200  0.000000  1.0  -0.8219
  O  O4382  1  0.205900  0.791000  0.000000  1.0  -0.7713
  O  O4383  1  0.125600  0.871900  0.000000  1.0  -0.7341
  O  O4384  1  0.079800  0.850900  0.000000  1.0  -0.5581
  O  O4385  1  0.321100  0.751800  0.000000  1.0  -0.8227
  O  O4386  1  0.294100  0.709000  0.000000  1.0  -0.7683
  O  O4387  1  0.374400  0.628100  0.000000  1.0  -0.7338
  O  O4388  1  0.420200  0.649100  0.000000  1.0  -0.5625
  O  O4389  1  0.321100  0.251800  0.500000  1.0  -0.8227
  O  O4390  1  0.294100  0.209000  0.500000  1.0  -0.7683
  O  O4391  1  0.374400  0.128100  0.500000  1.0  -0.7338
  O  O4392  1  0.420200  0.149100  0.500000  1.0  -0.5625
  O  O4393  1  0.821100  0.751800  0.500000  1.0  -0.8227
  O  O4394  1  0.794100  0.709000  0.500000  1.0  -0.7683
  O  O4395  1  0.874400  0.628100  0.500000  1.0  -0.7338
  O  O4396  1  0.920200  0.649100  0.500000  1.0  -0.5625
  O  O4397  1  0.821100  0.251800  0.000000  1.0  -0.8227
  O  O4398  1  0.794100  0.209000  0.000000  1.0  -0.7683
  O  O4399  1  0.874400  0.128100  0.000000  1.0  -0.7338
  O  O4400  1  0.920200  0.149100  0.000000  1.0  -0.5625
  O  O4401  1  0.678900  0.751800  0.000000  1.0  -0.8216
  O  O4402  1  0.705900  0.709000  0.000000  1.0  -0.7695
  O  O4403  1  0.625600  0.628100  0.000000  1.0  -0.7352
  O  O4404  1  0.579800  0.649100  0.000000  1.0  -0.5588
  O  O4405  1  0.678900  0.251800  0.500000  1.0  -0.8216
  O  O4406  1  0.705900  0.209000  0.500000  1.0  -0.7695
  O  O4407  1  0.625600  0.128100  0.500000  1.0  -0.7352
  O  O4408  1  0.579800  0.149100  0.500000  1.0  -0.5588
  O  O4409  1  0.178900  0.751800  0.500000  1.0  -0.8216
  O  O4410  1  0.205900  0.709000  0.500000  1.0  -0.7695
  O  O4411  1  0.125600  0.628100  0.500000  1.0  -0.7352
  O  O4412  1  0.079800  0.649100  0.500000  1.0  -0.5588
  O  O4413  1  0.178900  0.251800  0.000000  1.0  -0.8216
  O  O4414  1  0.205900  0.209000  0.000000  1.0  -0.7695
  O  O4415  1  0.125600  0.128100  0.000000  1.0  -0.7352
  O  O4416  1  0.079800  0.149100  0.000000  1.0  -0.5588
  O  O4417  1  0.821100  0.500000  0.251800  1.0  -0.823
  O  O4418  1  0.794100  0.500000  0.209000  1.0  -0.7672
  O  O4419  1  0.874400  0.500000  0.128100  1.0  -0.7375
  O  O4420  1  0.920200  0.500000  0.149100  1.0  -0.563
  O  O4421  1  0.821100  0.000000  0.751800  1.0  -0.823
  O  O4422  1  0.794100  0.000000  0.709000  1.0  -0.7672
  O  O4423  1  0.874400  0.000000  0.628100  1.0  -0.7375
  O  O4424  1  0.920200  0.000000  0.649100  1.0  -0.563
  O  O4425  1  0.321100  0.500000  0.751800  1.0  -0.823
  O  O4426  1  0.294100  0.500000  0.709000  1.0  -0.7672
  O  O4427  1  0.374400  0.500000  0.628100  1.0  -0.7375
  O  O4428  1  0.420200  0.500000  0.649100  1.0  -0.563
  O  O4429  1  0.321100  0.000000  0.251800  1.0  -0.823
  O  O4430  1  0.294100  0.000000  0.209000  1.0  -0.7672
  O  O4431  1  0.374400  0.000000  0.128100  1.0  -0.7375
  O  O4432  1  0.420200  0.000000  0.149100  1.0  -0.563
  O  O4433  1  0.178900  0.500000  0.251800  1.0  -0.8219
  O  O4434  1  0.205900  0.500000  0.209000  1.0  -0.769
  O  O4435  1  0.125600  0.500000  0.128100  1.0  -0.7395
  O  O4436  1  0.079800  0.500000  0.149100  1.0  -0.5593
  O  O4437  1  0.178900  0.000000  0.751800  1.0  -0.8219
  O  O4438  1  0.205900  0.000000  0.709000  1.0  -0.769
  O  O4439  1  0.125600  0.000000  0.628100  1.0  -0.7395
  O  O4440  1  0.079800  0.000000  0.649100  1.0  -0.5593
  O  O4441  1  0.678900  0.500000  0.751800  1.0  -0.8219
  O  O4442  1  0.705900  0.500000  0.709000  1.0  -0.769
  O  O4443  1  0.625600  0.500000  0.628100  1.0  -0.7395
  O  O4444  1  0.579800  0.500000  0.649100  1.0  -0.5593
  O  O4445  1  0.678900  0.000000  0.251800  1.0  -0.8219
  O  O4446  1  0.705900  0.000000  0.209000  1.0  -0.769
  O  O4447  1  0.625600  0.000000  0.128100  1.0  -0.7395
  O  O4448  1  0.579800  0.000000  0.149100  1.0  -0.5593
  O  O4449  1  0.821100  0.500000  0.748200  1.0  -0.8224
  O  O4450  1  0.794100  0.500000  0.791000  1.0  -0.7674
  O  O4451  1  0.874400  0.500000  0.871900  1.0  -0.7365
  O  O4452  1  0.920200  0.500000  0.850900  1.0  -0.563
  O  O4453  1  0.821100  0.000000  0.248200  1.0  -0.8224
  O  O4454  1  0.794100  0.000000  0.291000  1.0  -0.7674
  O  O4455  1  0.874400  0.000000  0.371900  1.0  -0.7365
  O  O4456  1  0.920200  0.000000  0.350900  1.0  -0.563
  O  O4457  1  0.321100  0.500000  0.248200  1.0  -0.8224
  O  O4458  1  0.294100  0.500000  0.291000  1.0  -0.7674
  O  O4459  1  0.374400  0.500000  0.371900  1.0  -0.7365
  O  O4460  1  0.420200  0.500000  0.350900  1.0  -0.563
  O  O4461  1  0.321100  0.000000  0.748200  1.0  -0.8224
  O  O4462  1  0.294100  0.000000  0.791000  1.0  -0.7674
  O  O4463  1  0.374400  0.000000  0.871900  1.0  -0.7365
  O  O4464  1  0.420200  0.000000  0.850900  1.0  -0.563
  O  O4465  1  0.178900  0.500000  0.748200  1.0  -0.8214
  O  O4466  1  0.205900  0.500000  0.791000  1.0  -0.7681
  O  O4467  1  0.125600  0.500000  0.871900  1.0  -0.7372
  O  O4468  1  0.079800  0.500000  0.850900  1.0  -0.5595
  O  O4469  1  0.178900  0.000000  0.248200  1.0  -0.8214
  O  O4470  1  0.205900  0.000000  0.291000  1.0  -0.7681
  O  O4471  1  0.125600  0.000000  0.371900  1.0  -0.7372
  O  O4472  1  0.079800  0.000000  0.350900  1.0  -0.5595
  O  O4473  1  0.678900  0.500000  0.248200  1.0  -0.8214
  O  O4474  1  0.705900  0.500000  0.291000  1.0  -0.7681
  O  O4475  1  0.625600  0.500000  0.371900  1.0  -0.7372
  O  O4476  1  0.579800  0.500000  0.350900  1.0  -0.5595
  O  O4477  1  0.678900  0.000000  0.748200  1.0  -0.8214
  O  O4478  1  0.705900  0.000000  0.791000  1.0  -0.7681
  O  O4479  1  0.625600  0.000000  0.871900  1.0  -0.7372
  O  O4480  1  0.579800  0.000000  0.850900  1.0  -0.5595
  O  O4481  1  0.500000  0.748200  0.178900  1.0  -0.8226
  O  O4482  1  0.500000  0.791000  0.205900  1.0  -0.7696
  O  O4483  1  0.500000  0.871900  0.125600  1.0  -0.7357
  O  O4484  1  0.500000  0.850900  0.079800  1.0  -0.5673
  O  O4485  1  0.500000  0.248200  0.678900  1.0  -0.8226
  O  O4486  1  0.500000  0.291000  0.705900  1.0  -0.7696
  O  O4487  1  0.500000  0.371900  0.625600  1.0  -0.7357
  O  O4488  1  0.500000  0.350900  0.579800  1.0  -0.5673
  O  O4489  1  0.000000  0.748200  0.678900  1.0  -0.8226
  O  O4490  1  0.000000  0.791000  0.705900  1.0  -0.7696
  O  O4491  1  0.000000  0.871900  0.625600  1.0  -0.7357
  O  O4492  1  0.000000  0.850900  0.579800  1.0  -0.5673
  O  O4493  1  0.000000  0.248200  0.178900  1.0  -0.8226
  O  O4494  1  0.000000  0.291000  0.205900  1.0  -0.7696
  O  O4495  1  0.000000  0.371900  0.125600  1.0  -0.7357
  O  O4496  1  0.000000  0.350900  0.079800  1.0  -0.5673
  O  O4497  1  0.500000  0.748200  0.821100  1.0  -0.8234
  O  O4498  1  0.500000  0.791000  0.794100  1.0  -0.7681
  O  O4499  1  0.500000  0.871900  0.874400  1.0  -0.7356
  O  O4500  1  0.500000  0.850900  0.920200  1.0  -0.563
  O  O4501  1  0.500000  0.248200  0.321100  1.0  -0.8234
  O  O4502  1  0.500000  0.291000  0.294100  1.0  -0.7681
  O  O4503  1  0.500000  0.371900  0.374400  1.0  -0.7356
  O  O4504  1  0.500000  0.350900  0.420200  1.0  -0.563
  O  O4505  1  0.000000  0.748200  0.321100  1.0  -0.8234
  O  O4506  1  0.000000  0.791000  0.294100  1.0  -0.7681
  O  O4507  1  0.000000  0.871900  0.374400  1.0  -0.7356
  O  O4508  1  0.000000  0.850900  0.420200  1.0  -0.563
  O  O4509  1  0.000000  0.248200  0.821100  1.0  -0.8234
  O  O4510  1  0.000000  0.291000  0.794100  1.0  -0.7681
  O  O4511  1  0.000000  0.371900  0.874400  1.0  -0.7356
  O  O4512  1  0.000000  0.350900  0.920200  1.0  -0.563
  O  O4513  1  0.500000  0.251800  0.178900  1.0  -0.8223
  O  O4514  1  0.500000  0.209000  0.205900  1.0  -0.768
  O  O4515  1  0.500000  0.128100  0.125600  1.0  -0.7365
  O  O4516  1  0.500000  0.149100  0.079800  1.0  -0.568
  O  O4517  1  0.500000  0.751800  0.678900  1.0  -0.8223
  O  O4518  1  0.500000  0.709000  0.705900  1.0  -0.768
  O  O4519  1  0.500000  0.628100  0.625600  1.0  -0.7365
  O  O4520  1  0.500000  0.649100  0.579800  1.0  -0.568
  O  O4521  1  0.000000  0.251800  0.678900  1.0  -0.8223
  O  O4522  1  0.000000  0.209000  0.705900  1.0  -0.768
  O  O4523  1  0.000000  0.128100  0.625600  1.0  -0.7365
  O  O4524  1  0.000000  0.149100  0.579800  1.0  -0.568
  O  O4525  1  0.000000  0.751800  0.178900  1.0  -0.8223
  O  O4526  1  0.000000  0.709000  0.205900  1.0  -0.768
  O  O4527  1  0.000000  0.628100  0.125600  1.0  -0.7365
  O  O4528  1  0.000000  0.649100  0.079800  1.0  -0.568
  O  O4529  1  0.500000  0.251800  0.821100  1.0  -0.8231
  O  O4530  1  0.500000  0.209000  0.794100  1.0  -0.7673
  O  O4531  1  0.500000  0.128100  0.874400  1.0  -0.7355
  O  O4532  1  0.500000  0.149100  0.920200  1.0  -0.5637
  O  O4533  1  0.500000  0.751800  0.321100  1.0  -0.8231
  O  O4534  1  0.500000  0.709000  0.294100  1.0  -0.7673
  O  O4535  1  0.500000  0.628100  0.374400  1.0  -0.7355
  O  O4536  1  0.500000  0.649100  0.420200  1.0  -0.5637
  O  O4537  1  0.000000  0.251800  0.321100  1.0  -0.8231
  O  O4538  1  0.000000  0.209000  0.294100  1.0  -0.7673
  O  O4539  1  0.000000  0.128100  0.374400  1.0  -0.7355
  O  O4540  1  0.000000  0.149100  0.420200  1.0  -0.5637
  O  O4541  1  0.000000  0.751800  0.821100  1.0  -0.8231
  O  O4542  1  0.000000  0.709000  0.794100  1.0  -0.7673
  O  O4543  1  0.000000  0.628100  0.874400  1.0  -0.7355
  O  O4544  1  0.000000  0.649100  0.920200  1.0  -0.5637
  O  O4545  1  0.748200  0.821100  0.500000  1.0  -0.8235
  O  O4546  1  0.791000  0.794100  0.500000  1.0  -0.7702
  O  O4547  1  0.871900  0.874400  0.500000  1.0  -0.7291
  O  O4548  1  0.850900  0.920200  0.500000  1.0  -0.5638
  O  O4549  1  0.748200  0.321100  0.000000  1.0  -0.8235
  O  O4550  1  0.791000  0.294100  0.000000  1.0  -0.7702
  O  O4551  1  0.871900  0.374400  0.000000  1.0  -0.7291
  O  O4552  1  0.850900  0.420200  0.000000  1.0  -0.5638
  O  O4553  1  0.248200  0.821100  0.000000  1.0  -0.8235
  O  O4554  1  0.291000  0.794100  0.000000  1.0  -0.7702
  O  O4555  1  0.371900  0.874400  0.000000  1.0  -0.7291
  O  O4556  1  0.350900  0.920200  0.000000  1.0  -0.5638
  O  O4557  1  0.248200  0.321100  0.500000  1.0  -0.8235
  O  O4558  1  0.291000  0.294100  0.500000  1.0  -0.7702
  O  O4559  1  0.371900  0.374400  0.500000  1.0  -0.7291
  O  O4560  1  0.350900  0.420200  0.500000  1.0  -0.5638
  O  O4561  1  0.748200  0.178900  0.500000  1.0  -0.8236
  O  O4562  1  0.791000  0.205900  0.500000  1.0  -0.7675
  O  O4563  1  0.871900  0.125600  0.500000  1.0  -0.7292
  O  O4564  1  0.850900  0.079800  0.500000  1.0  -0.5636
  O  O4565  1  0.748200  0.678900  0.000000  1.0  -0.8236
  O  O4566  1  0.791000  0.705900  0.000000  1.0  -0.7675
  O  O4567  1  0.871900  0.625600  0.000000  1.0  -0.7292
  O  O4568  1  0.850900  0.579800  0.000000  1.0  -0.5636
  O  O4569  1  0.248200  0.178900  0.000000  1.0  -0.8236
  O  O4570  1  0.291000  0.205900  0.000000  1.0  -0.7675
  O  O4571  1  0.371900  0.125600  0.000000  1.0  -0.7292
  O  O4572  1  0.350900  0.079800  0.000000  1.0  -0.5636
  O  O4573  1  0.248200  0.678900  0.500000  1.0  -0.8236
  O  O4574  1  0.291000  0.705900  0.500000  1.0  -0.7675
  O  O4575  1  0.371900  0.625600  0.500000  1.0  -0.7292
  O  O4576  1  0.350900  0.579800  0.500000  1.0  -0.5636
  O  O4577  1  0.251800  0.821100  0.500000  1.0  -0.823
  O  O4578  1  0.209000  0.794100  0.500000  1.0  -0.7702
  O  O4579  1  0.128100  0.874400  0.500000  1.0  -0.7281
  O  O4580  1  0.149100  0.920200  0.500000  1.0  -0.5644
  O  O4581  1  0.251800  0.321100  0.000000  1.0  -0.823
  O  O4582  1  0.209000  0.294100  0.000000  1.0  -0.7702
  O  O4583  1  0.128100  0.374400  0.000000  1.0  -0.7281
  O  O4584  1  0.149100  0.420200  0.000000  1.0  -0.5644
  O  O4585  1  0.751800  0.821100  0.000000  1.0  -0.823
  O  O4586  1  0.709000  0.794100  0.000000  1.0  -0.7702
  O  O4587  1  0.628100  0.874400  0.000000  1.0  -0.7281
  O  O4588  1  0.649100  0.920200  0.000000  1.0  -0.5644
  O  O4589  1  0.751800  0.321100  0.500000  1.0  -0.823
  O  O4590  1  0.709000  0.294100  0.500000  1.0  -0.7702
  O  O4591  1  0.628100  0.374400  0.500000  1.0  -0.7281
  O  O4592  1  0.649100  0.420200  0.500000  1.0  -0.5644
  O  O4593  1  0.251800  0.178900  0.500000  1.0  -0.8236
  O  O4594  1  0.209000  0.205900  0.500000  1.0  -0.7671
  O  O4595  1  0.128100  0.125600  0.500000  1.0  -0.7276
  O  O4596  1  0.149100  0.079800  0.500000  1.0  -0.564
  O  O4597  1  0.251800  0.678900  0.000000  1.0  -0.8236
  O  O4598  1  0.209000  0.705900  0.000000  1.0  -0.7671
  O  O4599  1  0.128100  0.625600  0.000000  1.0  -0.7276
  O  O4600  1  0.149100  0.579800  0.000000  1.0  -0.564
  O  O4601  1  0.751800  0.178900  0.000000  1.0  -0.8236
  O  O4602  1  0.709000  0.205900  0.000000  1.0  -0.7671
  O  O4603  1  0.628100  0.125600  0.000000  1.0  -0.7276
  O  O4604  1  0.649100  0.079800  0.000000  1.0  -0.564
  O  O4605  1  0.751800  0.678900  0.500000  1.0  -0.8236
  O  O4606  1  0.709000  0.705900  0.500000  1.0  -0.7671
  O  O4607  1  0.628100  0.625600  0.500000  1.0  -0.7276
  O  O4608  1  0.649100  0.579800  0.500000  1.0  -0.564
