# generated using pymatgen
data_CuH24(C8N)6
_symmetry_space_group_name_H-M   'P 1'
_cell_length_a   23.47000000
_cell_length_b   22.05100000
_cell_length_c   52.64500000
_cell_angle_alpha   90.00000000
_cell_angle_beta   90.00000000
_cell_angle_gamma   90.00000000
_symmetry_Int_Tables_number   1
_chemical_formula_structural   CuH24(C8N)6
_chemical_formula_sum   'Cu16 H384 C768 N96'
_cell_volume   27245.73378565
_cell_formula_units_Z   16
loop_
 _symmetry_equiv_pos_site_id
 _symmetry_equiv_pos_as_xyz
  1  'x, y, z'
loop_
 _atom_site_type_symbol
 _atom_site_label
 _atom_site_symmetry_multiplicity
 _atom_site_fract_x
 _atom_site_fract_y
 _atom_site_fract_z
 _atom_site_occupancy
 _atom_site_charge
  Cu  Cu1  1  0.464160  0.924840  0.136440  1.0  0.6067
  Cu  Cu2  1  0.447590  0.726080  0.103420  1.0  0.6447
  Cu  Cu3  1  0.035840  0.075160  0.636440  1.0  0.6082
  Cu  Cu4  1  0.052410  0.273920  0.603420  1.0  0.6436
  Cu  Cu5  1  0.535840  0.424840  0.363560  1.0  0.607
  Cu  Cu6  1  0.552410  0.226080  0.396580  1.0  0.6447
  Cu  Cu7  1  0.964160  0.575160  0.863560  1.0  0.6077
  Cu  Cu8  1  0.947590  0.773920  0.896580  1.0  0.6435
  Cu  Cu9  1  0.535840  0.075160  0.863560  1.0  0.6081
  Cu  Cu10  1  0.552410  0.273920  0.896580  1.0  0.6437
  Cu  Cu11  1  0.964160  0.924840  0.363560  1.0  0.6066
  Cu  Cu12  1  0.947590  0.726080  0.396580  1.0  0.6448
  Cu  Cu13  1  0.464160  0.575160  0.636440  1.0  0.6077
  Cu  Cu14  1  0.447590  0.773920  0.603420  1.0  0.6432
  Cu  Cu15  1  0.035840  0.424840  0.136440  1.0  0.6072
  Cu  Cu16  1  0.052410  0.226080  0.103420  1.0  0.6446
  H  H17  1  0.467700  0.170700  0.973400  1.0  0.1059
  H  H18  1  0.348300  0.029800  0.933400  1.0  0.1147
  H  H19  1  0.396800  0.102100  0.909100  1.0  0.1047
  H  H20  1  0.415800  0.102900  0.997700  1.0  0.1095
  H  H21  1  0.447400  0.979700  0.998400  1.0  0.0996
  H  H22  1  0.480500  0.952600  0.038600  1.0  0.1097
  H  H23  1  0.320700  0.979400  0.067200  1.0  0.1318
  H  H24  1  0.289100  0.007600  0.027000  1.0  0.1161
  H  H25  1  0.335900  0.874000  0.992700  1.0  0.1183
  H  H26  1  0.389300  0.821900  0.023400  1.0  0.1179
  H  H27  1  0.246700  0.801000  0.066200  1.0  0.1252
  H  H28  1  0.194900  0.855500  0.037000  1.0  0.1087
  H  H29  1  0.183400  0.790300  0.989200  1.0  0.1067
  H  H30  1  0.090600  0.757500  0.980400  1.0  0.096
  H  H31  1  0.038700  0.932300  0.976200  1.0  0.1086
  H  H32  1  0.130000  0.965900  0.984400  1.0  0.1163
  H  H33  1  0.199400  0.903100  0.929600  1.0  0.1112
  H  H34  1  0.118400  0.849700  0.917000  1.0  0.1117
  H  H35  1  0.030500  0.009600  0.913300  1.0  0.1183
  H  H36  1  0.113100  0.062200  0.925100  1.0  0.1212
  H  H37  1  0.215900  0.060200  0.891700  1.0  0.1101
  H  H38  1  0.249800  0.151600  0.876200  1.0  0.1093
  H  H39  1  0.285800  0.207100  0.948000  1.0  0.1162
  H  H40  1  0.254300  0.114100  0.963600  1.0  0.11
  H  H41  1  0.708100  0.182800  0.278500  1.0  0.1068
  H  H42  1  0.682400  0.202800  0.320400  1.0  0.1278
  H  H43  1  0.515100  0.201800  0.299500  1.0  0.1077
  H  H44  1  0.541900  0.183900  0.257400  1.0  0.1021
  H  H45  1  0.583000  0.074300  0.243900  1.0  0.1084
  H  H46  1  0.530900  0.018100  0.214800  1.0  0.1045
  H  H47  1  0.574000  0.137100  0.159000  1.0  0.1229
  H  H48  1  0.627100  0.192800  0.188100  1.0  0.1117
  H  H49  1  0.723100  0.080100  0.208300  1.0  0.1149
  H  H50  1  0.679600  0.998400  0.188300  1.0  0.115
  H  H51  1  0.714600  0.074700  0.119500  1.0  0.1136
  H  H52  1  0.759700  0.154700  0.139400  1.0  0.1065
  H  H53  1  0.864000  0.148100  0.167300  1.0  0.1177
  H  H54  1  0.938900  0.208000  0.151800  1.0  0.1103
  H  H55  1  0.843400  0.359400  0.165400  1.0  0.1088
  H  H56  1  0.773000  0.299000  0.183400  1.0  0.113
  H  H57  1  0.861100  0.233900  0.231300  1.0  0.1167
  H  H58  1  0.948800  0.276500  0.220000  1.0  0.1124
  H  H59  1  0.884300  0.445100  0.232200  1.0  0.1176
  H  H60  1  0.797500  0.402000  0.245200  1.0  0.1147
  H  H61  1  0.797400  0.329800  0.290600  1.0  0.1166
  H  H62  1  0.743400  0.369100  0.324100  1.0  0.1238
  H  H63  1  0.598900  0.349000  0.281300  1.0  0.1227
  H  H64  1  0.654300  0.309300  0.248400  1.0  0.1124
  H  H65  1  0.032300  0.829300  0.473400  1.0  0.1059
  H  H66  1  0.151700  0.970200  0.433400  1.0  0.1151
  H  H67  1  0.103200  0.897900  0.409100  1.0  0.1045
  H  H68  1  0.084200  0.897100  0.497700  1.0  0.1095
  H  H69  1  0.052600  0.020300  0.498400  1.0  0.0997
  H  H70  1  0.019500  0.047400  0.538600  1.0  0.1088
  H  H71  1  0.179300  0.020600  0.567200  1.0  0.1309
  H  H72  1  0.210900  0.992400  0.527000  1.0  0.1153
  H  H73  1  0.164100  0.126000  0.492700  1.0  0.1173
  H  H74  1  0.110700  0.178100  0.523400  1.0  0.1194
  H  H75  1  0.253300  0.199000  0.566200  1.0  0.1246
  H  H76  1  0.305100  0.144500  0.537000  1.0  0.1084
  H  H77  1  0.316600  0.209700  0.489200  1.0  0.1067
  H  H78  1  0.409400  0.242500  0.480400  1.0  0.0959
  H  H79  1  0.461300  0.067700  0.476200  1.0  0.1077
  H  H80  1  0.370000  0.034100  0.484400  1.0  0.1159
  H  H81  1  0.300600  0.096900  0.429600  1.0  0.1109
  H  H82  1  0.381600  0.150300  0.417000  1.0  0.111
  H  H83  1  0.469500  0.990400  0.413300  1.0  0.1182
  H  H84  1  0.386900  0.937800  0.425100  1.0  0.1213
  H  H85  1  0.284100  0.939800  0.391700  1.0  0.1112
  H  H86  1  0.250200  0.848400  0.376200  1.0  0.1094
  H  H87  1  0.214200  0.792900  0.448000  1.0  0.1168
  H  H88  1  0.245700  0.885900  0.463600  1.0  0.11
  H  H89  1  0.791900  0.817200  0.778500  1.0  0.1063
  H  H90  1  0.817600  0.797200  0.820400  1.0  0.1286
  H  H91  1  0.984900  0.798200  0.799500  1.0  0.1071
  H  H92  1  0.958100  0.816100  0.757400  1.0  0.1025
  H  H93  1  0.917000  0.925700  0.743900  1.0  0.1083
  H  H94  1  0.969100  0.981900  0.714800  1.0  0.1048
  H  H95  1  0.926000  0.862900  0.659000  1.0  0.1229
  H  H96  1  0.872900  0.807200  0.688100  1.0  0.112
  H  H97  1  0.776900  0.919900  0.708300  1.0  0.1159
  H  H98  1  0.820400  0.001600  0.688300  1.0  0.115
  H  H99  1  0.785400  0.925300  0.619500  1.0  0.1137
  H  H100  1  0.740300  0.845300  0.639400  1.0  0.1062
  H  H101  1  0.636000  0.851900  0.667300  1.0  0.1179
  H  H102  1  0.561100  0.792000  0.651800  1.0  0.1101
  H  H103  1  0.656600  0.640600  0.665400  1.0  0.1092
  H  H104  1  0.727000  0.701000  0.683400  1.0  0.1134
  H  H105  1  0.638900  0.766100  0.731300  1.0  0.117
  H  H106  1  0.551200  0.723500  0.720000  1.0  0.1125
  H  H107  1  0.615700  0.554900  0.732200  1.0  0.1179
  H  H108  1  0.702500  0.598000  0.745200  1.0  0.1141
  H  H109  1  0.702600  0.670200  0.790600  1.0  0.1178
  H  H110  1  0.756600  0.630900  0.824100  1.0  0.1246
  H  H111  1  0.901100  0.651000  0.781300  1.0  0.1228
  H  H112  1  0.845700  0.690700  0.748400  1.0  0.1125
  H  H113  1  0.532300  0.670700  0.526600  1.0  0.1062
  H  H114  1  0.651700  0.529800  0.566600  1.0  0.1149
  H  H115  1  0.603200  0.602100  0.590900  1.0  0.1045
  H  H116  1  0.584200  0.602900  0.502300  1.0  0.1104
  H  H117  1  0.552600  0.479700  0.501600  1.0  0.1001
  H  H118  1  0.519500  0.452600  0.461400  1.0  0.1087
  H  H119  1  0.679300  0.479400  0.432800  1.0  0.1308
  H  H120  1  0.710900  0.507600  0.473000  1.0  0.1161
  H  H121  1  0.664100  0.374000  0.507300  1.0  0.1175
  H  H122  1  0.610700  0.321900  0.476600  1.0  0.1188
  H  H123  1  0.753300  0.301000  0.433800  1.0  0.1256
  H  H124  1  0.805100  0.355500  0.463000  1.0  0.1097
  H  H125  1  0.816600  0.290300  0.510800  1.0  0.1058
  H  H126  1  0.909400  0.257500  0.519600  1.0  0.0957
  H  H127  1  0.961300  0.432300  0.523800  1.0  0.1083
  H  H128  1  0.870000  0.465900  0.515600  1.0  0.1163
  H  H129  1  0.800600  0.403100  0.570400  1.0  0.1109
  H  H130  1  0.881600  0.349700  0.583000  1.0  0.1116
  H  H131  1  0.969500  0.509600  0.586700  1.0  0.118
  H  H132  1  0.886900  0.562200  0.574900  1.0  0.1213
  H  H133  1  0.784100  0.560200  0.608300  1.0  0.1108
  H  H134  1  0.750200  0.651600  0.623800  1.0  0.1086
  H  H135  1  0.714200  0.707100  0.552000  1.0  0.1167
  H  H136  1  0.745700  0.614100  0.536400  1.0  0.11
  H  H137  1  0.291900  0.682800  0.221500  1.0  0.1063
  H  H138  1  0.317600  0.702800  0.179600  1.0  0.1275
  H  H139  1  0.484900  0.701800  0.200500  1.0  0.1074
  H  H140  1  0.458100  0.683900  0.242600  1.0  0.1028
  H  H141  1  0.417000  0.574300  0.256100  1.0  0.1087
  H  H142  1  0.469100  0.518100  0.285200  1.0  0.1051
  H  H143  1  0.426000  0.637100  0.341000  1.0  0.1227
  H  H144  1  0.372900  0.692800  0.311900  1.0  0.1125
  H  H145  1  0.276900  0.580100  0.291700  1.0  0.1149
  H  H146  1  0.320400  0.498400  0.311700  1.0  0.1157
  H  H147  1  0.285400  0.574700  0.380500  1.0  0.113
  H  H148  1  0.240300  0.654700  0.360600  1.0  0.1065
  H  H149  1  0.136000  0.648100  0.332700  1.0  0.1179
  H  H150  1  0.061100  0.708000  0.348200  1.0  0.1104
  H  H151  1  0.156600  0.859400  0.334600  1.0  0.1089
  H  H152  1  0.227000  0.799000  0.316600  1.0  0.1136
  H  H153  1  0.138900  0.733900  0.268700  1.0  0.1173
  H  H154  1  0.051200  0.776500  0.280000  1.0  0.1121
  H  H155  1  0.115700  0.945100  0.267800  1.0  0.1177
  H  H156  1  0.202500  0.902000  0.254800  1.0  0.114
  H  H157  1  0.202600  0.829800  0.209400  1.0  0.1174
  H  H158  1  0.256600  0.869100  0.175900  1.0  0.1242
  H  H159  1  0.401100  0.849000  0.218700  1.0  0.1229
  H  H160  1  0.345700  0.809300  0.251600  1.0  0.1127
  H  H161  1  0.967700  0.329300  0.026600  1.0  0.1056
  H  H162  1  0.848300  0.470200  0.066600  1.0  0.1147
  H  H163  1  0.896800  0.397900  0.090900  1.0  0.1047
  H  H164  1  0.915800  0.397100  0.002300  1.0  0.11
  H  H165  1  0.947400  0.520300  0.001600  1.0  0.1001
  H  H166  1  0.980500  0.547400  0.961400  1.0  0.1098
  H  H167  1  0.820700  0.520600  0.932800  1.0  0.131
  H  H168  1  0.789100  0.492400  0.973000  1.0  0.1151
  H  H169  1  0.835900  0.626000  0.007300  1.0  0.1175
  H  H170  1  0.889300  0.678100  0.976600  1.0  0.1182
  H  H171  1  0.746700  0.699000  0.933800  1.0  0.1247
  H  H172  1  0.694900  0.644500  0.963000  1.0  0.1085
  H  H173  1  0.683400  0.709700  0.010800  1.0  0.1062
  H  H174  1  0.590600  0.742500  0.019600  1.0  0.096
  H  H175  1  0.538700  0.567700  0.023800  1.0  0.1089
  H  H176  1  0.630000  0.534100  0.015600  1.0  0.1162
  H  H177  1  0.699400  0.596900  0.070400  1.0  0.1111
  H  H178  1  0.618400  0.650300  0.083000  1.0  0.1105
  H  H179  1  0.530500  0.490400  0.086700  1.0  0.1182
  H  H180  1  0.613100  0.437800  0.074900  1.0  0.1212
  H  H181  1  0.715900  0.439800  0.108300  1.0  0.1109
  H  H182  1  0.749800  0.348400  0.123800  1.0  0.1091
  H  H183  1  0.785800  0.292900  0.052000  1.0  0.1165
  H  H184  1  0.754300  0.385900  0.036400  1.0  0.1103
  H  H185  1  0.208100  0.317200  0.721500  1.0  0.1065
  H  H186  1  0.182400  0.297200  0.679600  1.0  0.1276
  H  H187  1  0.015100  0.298200  0.700500  1.0  0.1075
  H  H188  1  0.041900  0.316100  0.742600  1.0  0.1027
  H  H189  1  0.083000  0.425700  0.756100  1.0  0.1082
  H  H190  1  0.030900  0.481900  0.785200  1.0  0.1048
  H  H191  1  0.074000  0.362900  0.841000  1.0  0.1241
  H  H192  1  0.127100  0.307200  0.811900  1.0  0.1119
  H  H193  1  0.223100  0.419900  0.791700  1.0  0.1152
  H  H194  1  0.179600  0.501600  0.811700  1.0  0.116
  H  H195  1  0.214600  0.425300  0.880500  1.0  0.1135
  H  H196  1  0.259700  0.345300  0.860600  1.0  0.1068
  H  H197  1  0.364000  0.351900  0.832700  1.0  0.118
  H  H198  1  0.438900  0.292000  0.848200  1.0  0.1099
  H  H199  1  0.343400  0.140600  0.834600  1.0  0.1092
  H  H200  1  0.273000  0.201000  0.816600  1.0  0.1133
  H  H201  1  0.361100  0.266100  0.768700  1.0  0.1168
  H  H202  1  0.448800  0.223500  0.780000  1.0  0.1123
  H  H203  1  0.384300  0.054900  0.767800  1.0  0.1177
  H  H204  1  0.297500  0.098000  0.754800  1.0  0.1131
  H  H205  1  0.297400  0.170200  0.709400  1.0  0.1176
  H  H206  1  0.243400  0.130900  0.675900  1.0  0.125
  H  H207  1  0.098900  0.151000  0.718700  1.0  0.1233
  H  H208  1  0.154300  0.190700  0.751600  1.0  0.1126
  H  H209  1  0.532300  0.829300  0.026600  1.0  0.1055
  H  H210  1  0.651700  0.970200  0.066600  1.0  0.115
  H  H211  1  0.603200  0.897900  0.090900  1.0  0.1044
  H  H212  1  0.584200  0.897100  0.002300  1.0  0.1103
  H  H213  1  0.552600  0.020300  0.001600  1.0  0.1
  H  H214  1  0.519500  0.047400  0.961400  1.0  0.1088
  H  H215  1  0.679300  0.020600  0.932800  1.0  0.1309
  H  H216  1  0.710900  0.992400  0.973000  1.0  0.1157
  H  H217  1  0.664100  0.126000  0.007300  1.0  0.1176
  H  H218  1  0.610700  0.178100  0.976600  1.0  0.1188
  H  H219  1  0.753300  0.199000  0.933800  1.0  0.1258
  H  H220  1  0.805100  0.144500  0.963000  1.0  0.1096
  H  H221  1  0.816600  0.209700  0.010800  1.0  0.1064
  H  H222  1  0.909400  0.242500  0.019600  1.0  0.0953
  H  H223  1  0.961300  0.067700  0.023800  1.0  0.1084
  H  H224  1  0.870000  0.034100  0.015600  1.0  0.1166
  H  H225  1  0.800600  0.096900  0.070400  1.0  0.1105
  H  H226  1  0.881600  0.150300  0.083000  1.0  0.1097
  H  H227  1  0.969500  0.990400  0.086700  1.0  0.1178
  H  H228  1  0.886900  0.937800  0.074900  1.0  0.1216
  H  H229  1  0.784100  0.939800  0.108300  1.0  0.1105
  H  H230  1  0.750200  0.848400  0.123800  1.0  0.1088
  H  H231  1  0.714200  0.792900  0.052000  1.0  0.1169
  H  H232  1  0.745700  0.885900  0.036400  1.0  0.1107
  H  H233  1  0.291900  0.817200  0.721500  1.0  0.1059
  H  H234  1  0.317600  0.797200  0.679600  1.0  0.1274
  H  H235  1  0.484900  0.798200  0.700500  1.0  0.1072
  H  H236  1  0.458100  0.816100  0.742600  1.0  0.1025
  H  H237  1  0.417000  0.925700  0.756100  1.0  0.1086
  H  H238  1  0.469100  0.981900  0.785200  1.0  0.1053
  H  H239  1  0.426000  0.862900  0.841000  1.0  0.1224
  H  H240  1  0.372900  0.807200  0.811900  1.0  0.1122
  H  H241  1  0.276900  0.919900  0.791700  1.0  0.1151
  H  H242  1  0.320400  0.001600  0.811700  1.0  0.1158
  H  H243  1  0.285400  0.925300  0.880500  1.0  0.1131
  H  H244  1  0.240300  0.845300  0.860600  1.0  0.1067
  H  H245  1  0.136000  0.851900  0.832700  1.0  0.1179
  H  H246  1  0.061100  0.792000  0.848200  1.0  0.1098
  H  H247  1  0.156600  0.640600  0.834600  1.0  0.1094
  H  H248  1  0.227000  0.701000  0.816600  1.0  0.1136
  H  H249  1  0.138900  0.766100  0.768700  1.0  0.1169
  H  H250  1  0.051200  0.723500  0.780000  1.0  0.1121
  H  H251  1  0.115700  0.554900  0.767800  1.0  0.1178
  H  H252  1  0.202500  0.598000  0.754800  1.0  0.1137
  H  H253  1  0.202600  0.670200  0.709400  1.0  0.1176
  H  H254  1  0.256600  0.630900  0.675900  1.0  0.1243
  H  H255  1  0.401100  0.651000  0.718700  1.0  0.1235
  H  H256  1  0.345700  0.690700  0.751600  1.0  0.1117
  H  H257  1  0.967700  0.170700  0.526600  1.0  0.1059
  H  H258  1  0.848300  0.029800  0.566600  1.0  0.1146
  H  H259  1  0.896800  0.102100  0.590900  1.0  0.1046
  H  H260  1  0.915800  0.102900  0.502300  1.0  0.1101
  H  H261  1  0.947400  0.979700  0.501600  1.0  0.1002
  H  H262  1  0.980500  0.952600  0.461400  1.0  0.1097
  H  H263  1  0.820700  0.979400  0.432800  1.0  0.131
  H  H264  1  0.789100  0.007600  0.473000  1.0  0.1151
  H  H265  1  0.835900  0.874000  0.507300  1.0  0.1172
  H  H266  1  0.889300  0.821900  0.476600  1.0  0.118
  H  H267  1  0.746700  0.801000  0.433800  1.0  0.1249
  H  H268  1  0.694900  0.855500  0.463000  1.0  0.1086
  H  H269  1  0.683400  0.790300  0.510800  1.0  0.1062
  H  H270  1  0.590600  0.757500  0.519600  1.0  0.0956
  H  H271  1  0.538700  0.932300  0.523800  1.0  0.1091
  H  H272  1  0.630000  0.965900  0.515600  1.0  0.116
  H  H273  1  0.699400  0.903100  0.570400  1.0  0.1115
  H  H274  1  0.618400  0.849700  0.583000  1.0  0.1101
  H  H275  1  0.530500  0.009600  0.586700  1.0  0.118
  H  H276  1  0.613100  0.062200  0.574900  1.0  0.1214
  H  H277  1  0.715900  0.060200  0.608300  1.0  0.1109
  H  H278  1  0.749800  0.151600  0.623800  1.0  0.109
  H  H279  1  0.785800  0.207100  0.552000  1.0  0.1164
  H  H280  1  0.754300  0.114100  0.536400  1.0  0.1097
  H  H281  1  0.208100  0.182800  0.221500  1.0  0.1065
  H  H282  1  0.182400  0.202800  0.179600  1.0  0.1278
  H  H283  1  0.015100  0.201800  0.200500  1.0  0.1076
  H  H284  1  0.041900  0.183900  0.242600  1.0  0.1026
  H  H285  1  0.083000  0.074300  0.256100  1.0  0.1083
  H  H286  1  0.030900  0.018100  0.285200  1.0  0.1043
  H  H287  1  0.074000  0.137100  0.341000  1.0  0.1241
  H  H288  1  0.127100  0.192800  0.311900  1.0  0.1122
  H  H289  1  0.223100  0.080100  0.291700  1.0  0.1152
  H  H290  1  0.179600  0.998400  0.311700  1.0  0.1157
  H  H291  1  0.214600  0.074700  0.380500  1.0  0.1133
  H  H292  1  0.259700  0.154700  0.360600  1.0  0.1065
  H  H293  1  0.364000  0.148100  0.332700  1.0  0.1177
  H  H294  1  0.438900  0.208000  0.348200  1.0  0.1103
  H  H295  1  0.343400  0.359400  0.334600  1.0  0.1088
  H  H296  1  0.273000  0.299000  0.316600  1.0  0.1133
  H  H297  1  0.361100  0.233900  0.268700  1.0  0.1173
  H  H298  1  0.448800  0.276500  0.280000  1.0  0.1125
  H  H299  1  0.384300  0.445100  0.267800  1.0  0.1176
  H  H300  1  0.297500  0.402000  0.254800  1.0  0.1143
  H  H301  1  0.297400  0.329800  0.209400  1.0  0.1174
  H  H302  1  0.243400  0.369100  0.175900  1.0  0.1252
  H  H303  1  0.098900  0.349000  0.218700  1.0  0.1228
  H  H304  1  0.154300  0.309300  0.251600  1.0  0.1133
  H  H305  1  0.467700  0.329300  0.473400  1.0  0.1061
  H  H306  1  0.348300  0.470200  0.433400  1.0  0.115
  H  H307  1  0.396800  0.397900  0.409100  1.0  0.1045
  H  H308  1  0.415800  0.397100  0.497700  1.0  0.1097
  H  H309  1  0.447400  0.520300  0.498400  1.0  0.0998
  H  H310  1  0.480500  0.547400  0.538600  1.0  0.1098
  H  H311  1  0.320700  0.520600  0.567200  1.0  0.1318
  H  H312  1  0.289100  0.492400  0.527000  1.0  0.1158
  H  H313  1  0.335900  0.626000  0.492700  1.0  0.1178
  H  H314  1  0.389300  0.678100  0.523400  1.0  0.1185
  H  H315  1  0.246700  0.699000  0.566200  1.0  0.1246
  H  H316  1  0.194900  0.644500  0.537000  1.0  0.1089
  H  H317  1  0.183400  0.709700  0.489200  1.0  0.1064
  H  H318  1  0.090600  0.742500  0.480400  1.0  0.0959
  H  H319  1  0.038700  0.567700  0.476200  1.0  0.1084
  H  H320  1  0.130000  0.534100  0.484400  1.0  0.1163
  H  H321  1  0.199400  0.596900  0.429600  1.0  0.1114
  H  H322  1  0.118400  0.650300  0.417000  1.0  0.1094
  H  H323  1  0.030500  0.490400  0.413300  1.0  0.1181
  H  H324  1  0.113100  0.437800  0.425100  1.0  0.1212
  H  H325  1  0.215900  0.439800  0.391700  1.0  0.1108
  H  H326  1  0.249800  0.348400  0.376200  1.0  0.1094
  H  H327  1  0.285800  0.292900  0.448000  1.0  0.1168
  H  H328  1  0.254300  0.385900  0.463600  1.0  0.1106
  H  H329  1  0.708100  0.317200  0.778500  1.0  0.1063
  H  H330  1  0.682400  0.297200  0.820400  1.0  0.1277
  H  H331  1  0.515100  0.298200  0.799500  1.0  0.1074
  H  H332  1  0.541900  0.316100  0.757400  1.0  0.1024
  H  H333  1  0.583000  0.425700  0.743900  1.0  0.1083
  H  H334  1  0.530900  0.481900  0.714800  1.0  0.1047
  H  H335  1  0.574000  0.362900  0.659000  1.0  0.1224
  H  H336  1  0.627100  0.307200  0.688100  1.0  0.1116
  H  H337  1  0.723100  0.419900  0.708300  1.0  0.1151
  H  H338  1  0.679600  0.501600  0.688300  1.0  0.1152
  H  H339  1  0.714600  0.425300  0.619500  1.0  0.1139
  H  H340  1  0.759700  0.345300  0.639400  1.0  0.1065
  H  H341  1  0.864000  0.351900  0.667300  1.0  0.1179
  H  H342  1  0.938900  0.292000  0.651800  1.0  0.1103
  H  H343  1  0.843400  0.140600  0.665400  1.0  0.1089
  H  H344  1  0.773000  0.201000  0.683400  1.0  0.1129
  H  H345  1  0.861100  0.266100  0.731300  1.0  0.1166
  H  H346  1  0.948800  0.223500  0.720000  1.0  0.1123
  H  H347  1  0.884300  0.054900  0.732200  1.0  0.1179
  H  H348  1  0.797500  0.098000  0.745200  1.0  0.1135
  H  H349  1  0.797400  0.170200  0.790600  1.0  0.1167
  H  H350  1  0.743400  0.130900  0.824100  1.0  0.1238
  H  H351  1  0.598900  0.151000  0.781300  1.0  0.123
  H  H352  1  0.654300  0.190700  0.748400  1.0  0.1125
  H  H353  1  0.032300  0.670700  0.973400  1.0  0.1063
  H  H354  1  0.151700  0.529800  0.933400  1.0  0.1148
  H  H355  1  0.103200  0.602100  0.909100  1.0  0.1047
  H  H356  1  0.084200  0.602900  0.997700  1.0  0.1093
  H  H357  1  0.052600  0.479700  0.998400  1.0  0.0994
  H  H358  1  0.019500  0.452600  0.038600  1.0  0.1086
  H  H359  1  0.179300  0.479400  0.067200  1.0  0.1308
  H  H360  1  0.210900  0.507600  0.027000  1.0  0.1152
  H  H361  1  0.164100  0.374000  0.992700  1.0  0.1179
  H  H362  1  0.110700  0.321900  0.023400  1.0  0.1193
  H  H363  1  0.253300  0.301000  0.066200  1.0  0.1245
  H  H364  1  0.305100  0.355500  0.037000  1.0  0.1082
  H  H365  1  0.316600  0.290300  0.989200  1.0  0.1063
  H  H366  1  0.409400  0.257500  0.980400  1.0  0.0954
  H  H367  1  0.461300  0.432300  0.976200  1.0  0.1074
  H  H368  1  0.370000  0.465900  0.984400  1.0  0.116
  H  H369  1  0.300600  0.403100  0.929600  1.0  0.1107
  H  H370  1  0.381600  0.349700  0.917000  1.0  0.1109
  H  H371  1  0.469500  0.509600  0.913300  1.0  0.1187
  H  H372  1  0.386900  0.562200  0.925100  1.0  0.121
  H  H373  1  0.284100  0.560200  0.891700  1.0  0.111
  H  H374  1  0.250200  0.651600  0.876200  1.0  0.1093
  H  H375  1  0.214200  0.707100  0.948000  1.0  0.1169
  H  H376  1  0.245700  0.614100  0.963600  1.0  0.1096
  H  H377  1  0.791900  0.682800  0.278500  1.0  0.1069
  H  H378  1  0.817600  0.702800  0.320400  1.0  0.1286
  H  H379  1  0.984900  0.701800  0.299500  1.0  0.1074
  H  H380  1  0.958100  0.683900  0.257400  1.0  0.1026
  H  H381  1  0.917000  0.574300  0.243900  1.0  0.1083
  H  H382  1  0.969100  0.518100  0.214800  1.0  0.1051
  H  H383  1  0.926000  0.637100  0.159000  1.0  0.1236
  H  H384  1  0.872900  0.692800  0.188100  1.0  0.1124
  H  H385  1  0.776900  0.580100  0.208300  1.0  0.1157
  H  H386  1  0.820400  0.498400  0.188300  1.0  0.1152
  H  H387  1  0.785400  0.574700  0.119500  1.0  0.1132
  H  H388  1  0.740300  0.654700  0.139400  1.0  0.1063
  H  H389  1  0.636000  0.648100  0.167300  1.0  0.118
  H  H390  1  0.561100  0.708000  0.151800  1.0  0.1103
  H  H391  1  0.656600  0.859400  0.165400  1.0  0.1089
  H  H392  1  0.727000  0.799000  0.183400  1.0  0.1135
  H  H393  1  0.638900  0.733900  0.231300  1.0  0.117
  H  H394  1  0.551200  0.776500  0.220000  1.0  0.1123
  H  H395  1  0.615700  0.945100  0.232200  1.0  0.1176
  H  H396  1  0.702500  0.902000  0.245200  1.0  0.1141
  H  H397  1  0.702600  0.829800  0.290600  1.0  0.1178
  H  H398  1  0.756600  0.869100  0.324100  1.0  0.124
  H  H399  1  0.901100  0.849000  0.281300  1.0  0.1227
  H  H400  1  0.845700  0.809300  0.248400  1.0  0.1129
  C  C401  1  0.292640  0.993310  0.975580  1.0  0.0104
  C  C402  1  0.247500  0.949380  0.979370  1.0  0.0756
  C  C403  1  0.244030  0.992620  0.959250  1.0  0.0547
  C  C404  1  0.343570  0.015770  0.983360  1.0  -0.0064
  C  C405  1  0.225990  0.902050  0.992310  1.0  0.017
  C  C406  1  0.214570  0.018160  0.939710  1.0  -0.0133
  C  C407  1  0.442740  0.142670  0.965440  1.0  -0.0779
  C  C408  1  0.376150  0.059280  0.968200  1.0  -0.0003
  C  C409  1  0.371650  0.059140  0.941530  1.0  -0.084
  C  C410  1  0.401100  0.101490  0.927010  1.0  -0.1318
  C  C411  1  0.436750  0.142690  0.938830  1.0  0.0212
  C  C412  1  0.467190  0.185890  0.923670  1.0  0.3712
  C  C413  1  0.412410  0.102170  0.979750  1.0  -0.0573
  C  C414  1  0.365060  0.996490  0.008710  1.0  0.0202
  C  C415  1  0.421980  0.979820  0.012410  1.0  -0.104
  C  C416  1  0.441730  0.963430  0.036250  1.0  -0.1456
  C  C417  1  0.404220  0.963100  0.056520  1.0  0.0273
  C  C418  1  0.423950  0.947920  0.081200  1.0  0.3039
  C  C419  1  0.346280  0.979680  0.053220  1.0  -0.0987
  C  C420  1  0.327760  0.996230  0.029380  1.0  -0.06
  C  C421  1  0.258980  0.870160  0.011680  1.0  0.044
  C  C422  1  0.318030  0.859920  0.007780  1.0  -0.0509
  C  C423  1  0.349870  0.829200  0.026020  1.0  -0.1288
  C  C424  1  0.323310  0.809240  0.048110  1.0  -0.0297
  C  C425  1  0.356750  0.776390  0.066990  1.0  0.327
  C  C426  1  0.264910  0.817200  0.051630  1.0  -0.1036
  C  C427  1  0.234250  0.848370  0.034020  1.0  -0.1305
  C  C428  1  0.167250  0.881730  0.987050  1.0  -0.0049
  C  C429  1  0.154200  0.819260  0.986240  1.0  -0.1331
  C  C430  1  0.098900  0.799660  0.981200  1.0  -0.118
  C  C431  1  0.055600  0.842500  0.977360  1.0  -0.0413
  C  C432  1  0.998640  0.819800  0.973250  1.0  0.3486
  C  C433  1  0.068250  0.903540  0.978690  1.0  -0.0969
  C  C434  1  0.122490  0.923600  0.983490  1.0  -0.1117
  C  C435  1  0.163670  0.986550  0.929640  1.0  -0.0354
  C  C436  1  0.164930  0.924430  0.926500  1.0  -0.0778
  C  C437  1  0.117000  0.892510  0.918930  1.0  -0.1883
  C  C438  1  0.066170  0.924520  0.914090  1.0  -0.0559
  C  C439  1  0.016900  0.889970  0.908260  1.0  0.3153
  C  C440  1  0.064730  0.988040  0.916620  1.0  -0.1007
  C  C441  1  0.113520  0.019170  0.923940  1.0  -0.1161
  C  C442  1  0.232800  0.076780  0.929440  1.0  -0.01
  C  C443  1  0.230880  0.089540  0.903080  1.0  -0.1317
  C  C444  1  0.250390  0.143870  0.893920  1.0  -0.1166
  C  C445  1  0.271150  0.187740  0.910550  1.0  -0.0717
  C  C446  1  0.290610  0.244620  0.901090  1.0  0.2456
  C  C447  1  0.272210  0.176830  0.936660  1.0  -0.1479
  C  C448  1  0.253360  0.121700  0.945870  1.0  -0.048
  C  C449  1  0.696900  0.198290  0.229080  1.0  0.0303
  C  C450  1  0.741350  0.201720  0.210570  1.0  0.0748
  C  C451  1  0.742260  0.240510  0.232450  1.0  0.0794
  C  C452  1  0.646150  0.173590  0.237080  1.0  -0.0125
  C  C453  1  0.765410  0.182130  0.188810  1.0  -0.0072
  C  C454  1  0.764610  0.287260  0.245650  1.0  -0.0052
  C  C455  1  0.628050  0.183040  0.263360  1.0  0.0109
  C  C456  1  0.669030  0.187670  0.282640  1.0  -0.1001
  C  C457  1  0.653930  0.199240  0.307640  1.0  -0.1339
  C  C458  1  0.596890  0.205540  0.313900  1.0  -0.0136
  C  C459  1  0.579540  0.217390  0.339500  1.0  0.3198
  C  C460  1  0.554280  0.198890  0.295060  1.0  -0.151
  C  C461  1  0.570360  0.188030  0.270140  1.0  -0.1162
  C  C462  1  0.611360  0.138970  0.219150  1.0  0.0075
  C  C463  1  0.581830  0.086750  0.226630  1.0  -0.1263
  C  C464  1  0.551020  0.053160  0.209340  1.0  -0.1008
  C  C465  1  0.549490  0.070790  0.183760  1.0  0.0122
  C  C466  1  0.519810  0.033060  0.165930  1.0  0.2611
  C  C467  1  0.576770  0.123840  0.176140  1.0  -0.0967
  C  C468  1  0.607870  0.157180  0.193510  1.0  -0.0718
  C  C469  1  0.742950  0.127670  0.176090  1.0  -0.0628
  C  C470  1  0.720500  0.079230  0.190320  1.0  -0.063
  C  C471  1  0.694940  0.030800  0.178540  1.0  -0.1499
  C  C472  1  0.691670  0.029570  0.152200  1.0  -0.0421
  C  C473  1  0.662210  0.980630  0.139630  1.0  0.3383
  C  C474  1  0.716160  0.076340  0.137560  1.0  -0.0905
  C  C475  1  0.742080  0.123890  0.149300  1.0  -0.0783
  C  C476  1  0.812090  0.217860  0.177310  1.0  0.0407
  C  C477  1  0.860740  0.191080  0.167460  1.0  -0.1204
  C  C478  1  0.904850  0.226370  0.157870  1.0  -0.0777
  C  C479  1  0.898320  0.289550  0.157260  1.0  -0.0527
  C  C480  1  0.944030  0.327460  0.148600  1.0  0.3551
  C  C481  1  0.848290  0.316680  0.166320  1.0  -0.165
  C  C482  1  0.806350  0.280710  0.176620  1.0  -0.0746
  C  C483  1  0.820230  0.314410  0.238780  1.0  0.0375
  C  C484  1  0.865910  0.276640  0.231570  1.0  -0.0901
  C  C485  1  0.917890  0.301820  0.224830  1.0  -0.1288
  C  C486  1  0.924290  0.363780  0.225250  1.0  0.0006
  C  C487  1  0.977170  0.391800  0.218440  1.0  0.1822
  C  C488  1  0.879480  0.402350  0.232340  1.0  -0.1676
  C  C489  1  0.827760  0.376680  0.239620  1.0  -0.0908
  C  C490  1  0.731180  0.315380  0.266450  1.0  -0.024
  C  C491  1  0.757210  0.333500  0.288840  1.0  -0.1002
  C  C492  1  0.725300  0.356910  0.308740  1.0  -0.0933
  C  C493  1  0.666280  0.362290  0.305980  1.0  -0.0353
  C  C494  1  0.631030  0.384140  0.326380  1.0  0.3112
  C  C495  1  0.638960  0.344840  0.283240  1.0  -0.1537
  C  C496  1  0.672050  0.321430  0.263810  1.0  -0.0898
  C  C497  1  0.207360  0.006690  0.475580  1.0  0.0104
  C  C498  1  0.252500  0.050620  0.479370  1.0  0.0758
  C  C499  1  0.255970  0.007380  0.459250  1.0  0.055
  C  C500  1  0.156430  0.984230  0.483360  1.0  -0.0066
  C  C501  1  0.274010  0.097950  0.492310  1.0  0.017
  C  C502  1  0.285430  0.981840  0.439710  1.0  -0.0127
  C  C503  1  0.057260  0.857330  0.465440  1.0  -0.0753
  C  C504  1  0.123850  0.940720  0.468200  1.0  -0.0004
  C  C505  1  0.128350  0.940860  0.441530  1.0  -0.0831
  C  C506  1  0.098900  0.898510  0.427010  1.0  -0.1312
  C  C507  1  0.063250  0.857310  0.438830  1.0  0.0185
  C  C508  1  0.032810  0.814110  0.423670  1.0  0.372
  C  C509  1  0.087590  0.897830  0.479750  1.0  -0.0573
  C  C510  1  0.134940  0.003510  0.508710  1.0  0.0198
  C  C511  1  0.078020  0.020180  0.512410  1.0  -0.1038
  C  C512  1  0.058270  0.036570  0.536250  1.0  -0.1474
  C  C513  1  0.095780  0.036900  0.556520  1.0  0.0264
  C  C514  1  0.076050  0.052080  0.581200  1.0  0.3025
  C  C515  1  0.153720  0.020320  0.553220  1.0  -0.0972
  C  C516  1  0.172240  0.003770  0.529380  1.0  -0.0593
  C  C517  1  0.241020  0.129840  0.511680  1.0  0.0447
  C  C518  1  0.181970  0.140080  0.507780  1.0  -0.0504
  C  C519  1  0.150130  0.170800  0.526020  1.0  -0.1299
  C  C520  1  0.176690  0.190760  0.548110  1.0  -0.0291
  C  C521  1  0.143250  0.223610  0.566990  1.0  0.3241
  C  C522  1  0.235090  0.182800  0.551630  1.0  -0.1049
  C  C523  1  0.265750  0.151630  0.534020  1.0  -0.1298
  C  C524  1  0.332750  0.118270  0.487050  1.0  -0.0044
  C  C525  1  0.345800  0.180740  0.486240  1.0  -0.1328
  C  C526  1  0.401100  0.200340  0.481200  1.0  -0.1202
  C  C527  1  0.444400  0.157500  0.477360  1.0  -0.0406
  C  C528  1  0.501360  0.180200  0.473250  1.0  0.3487
  C  C529  1  0.431750  0.096460  0.478690  1.0  -0.0972
  C  C530  1  0.377510  0.076400  0.483490  1.0  -0.1112
  C  C531  1  0.336330  0.013450  0.429640  1.0  -0.0345
  C  C532  1  0.335070  0.075570  0.426500  1.0  -0.0768
  C  C533  1  0.383000  0.107490  0.418930  1.0  -0.1884
  C  C534  1  0.433830  0.075480  0.414090  1.0  -0.0547
  C  C535  1  0.483100  0.110030  0.408260  1.0  0.315
  C  C536  1  0.435270  0.011960  0.416620  1.0  -0.0992
  C  C537  1  0.386480  0.980830  0.423940  1.0  -0.1167
  C  C538  1  0.267200  0.923220  0.429440  1.0  -0.0087
  C  C539  1  0.269120  0.910460  0.403080  1.0  -0.1321
  C  C540  1  0.249610  0.856130  0.393920  1.0  -0.1191
  C  C541  1  0.228850  0.812260  0.410550  1.0  -0.0715
  C  C542  1  0.209390  0.755380  0.401090  1.0  0.2468
  C  C543  1  0.227790  0.823170  0.436660  1.0  -0.1497
  C  C544  1  0.246640  0.878300  0.445870  1.0  -0.0505
  C  C545  1  0.803100  0.801710  0.729080  1.0  0.0307
  C  C546  1  0.758650  0.798280  0.710570  1.0  0.0745
  C  C547  1  0.757740  0.759490  0.732450  1.0  0.0784
  C  C548  1  0.853850  0.826410  0.737080  1.0  -0.0123
  C  C549  1  0.734590  0.817870  0.688810  1.0  -0.0085
  C  C550  1  0.735390  0.712740  0.745650  1.0  -0.0051
  C  C551  1  0.871950  0.816960  0.763360  1.0  0.0116
  C  C552  1  0.830970  0.812330  0.782640  1.0  -0.0987
  C  C553  1  0.846070  0.800760  0.807640  1.0  -0.1335
  C  C554  1  0.903110  0.794460  0.813900  1.0  -0.0132
  C  C555  1  0.920460  0.782610  0.839500  1.0  0.3204
  C  C556  1  0.945720  0.801110  0.795060  1.0  -0.1487
  C  C557  1  0.929640  0.811970  0.770140  1.0  -0.117
  C  C558  1  0.888640  0.861030  0.719150  1.0  0.0076
  C  C559  1  0.918170  0.913250  0.726630  1.0  -0.1264
  C  C560  1  0.948980  0.946840  0.709340  1.0  -0.1026
  C  C561  1  0.950510  0.929210  0.683760  1.0  0.0142
  C  C562  1  0.980190  0.966940  0.665930  1.0  0.2616
  C  C563  1  0.923230  0.876160  0.676140  1.0  -0.0982
  C  C564  1  0.892130  0.842820  0.693510  1.0  -0.0746
  C  C565  1  0.757050  0.872330  0.676090  1.0  -0.0629
  C  C566  1  0.779500  0.920770  0.690320  1.0  -0.0628
  C  C567  1  0.805060  0.969200  0.678540  1.0  -0.1478
  C  C568  1  0.808330  0.970430  0.652200  1.0  -0.0409
  C  C569  1  0.837790  0.019370  0.639630  1.0  0.3367
  C  C570  1  0.783840  0.923660  0.637560  1.0  -0.0906
  C  C571  1  0.757920  0.876110  0.649300  1.0  -0.0781
  C  C572  1  0.687910  0.782140  0.677310  1.0  0.04
  C  C573  1  0.639260  0.808920  0.667460  1.0  -0.118
  C  C574  1  0.595150  0.773630  0.657870  1.0  -0.0786
  C  C575  1  0.601680  0.710450  0.657260  1.0  -0.0563
  C  C576  1  0.555970  0.672540  0.648600  1.0  0.3552
  C  C577  1  0.651710  0.683320  0.666320  1.0  -0.1648
  C  C578  1  0.693650  0.719290  0.676620  1.0  -0.0753
  C  C579  1  0.679770  0.685590  0.738780  1.0  0.0369
  C  C580  1  0.634090  0.723360  0.731570  1.0  -0.091
  C  C581  1  0.582110  0.698180  0.724830  1.0  -0.1299
  C  C582  1  0.575710  0.636220  0.725250  1.0  0.0015
  C  C583  1  0.522830  0.608200  0.718440  1.0  0.1813
  C  C584  1  0.620520  0.597650  0.732340  1.0  -0.1667
  C  C585  1  0.672240  0.623320  0.739620  1.0  -0.0903
  C  C586  1  0.768820  0.684620  0.766450  1.0  -0.0256
  C  C587  1  0.742790  0.666500  0.788840  1.0  -0.1011
  C  C588  1  0.774700  0.643090  0.808740  1.0  -0.0936
  C  C589  1  0.833720  0.637710  0.805980  1.0  -0.0344
  C  C590  1  0.868970  0.615860  0.826380  1.0  0.3108
  C  C591  1  0.861040  0.655160  0.783240  1.0  -0.1545
  C  C592  1  0.827950  0.678570  0.763810  1.0  -0.0918
  C  C593  1  0.707360  0.493310  0.524420  1.0  0.0106
  C  C594  1  0.752500  0.449380  0.520630  1.0  0.0757
  C  C595  1  0.755970  0.492620  0.540750  1.0  0.0551
  C  C596  1  0.656430  0.515770  0.516640  1.0  -0.0064
  C  C597  1  0.774010  0.402050  0.507690  1.0  0.0172
  C  C598  1  0.785430  0.518160  0.560290  1.0  -0.0127
  C  C599  1  0.557260  0.642670  0.534560  1.0  -0.0767
  C  C600  1  0.623850  0.559280  0.531800  1.0  -0.0007
  C  C601  1  0.628350  0.559140  0.558470  1.0  -0.0839
  C  C602  1  0.598900  0.601490  0.572990  1.0  -0.132
  C  C603  1  0.563250  0.642690  0.561170  1.0  0.0217
  C  C604  1  0.532810  0.685890  0.576330  1.0  0.3711
  C  C605  1  0.587590  0.602170  0.520250  1.0  -0.0576
  C  C606  1  0.634940  0.496490  0.491290  1.0  0.02
  C  C607  1  0.578020  0.479820  0.487590  1.0  -0.1034
  C  C608  1  0.558270  0.463430  0.463750  1.0  -0.1463
  C  C609  1  0.595780  0.463100  0.443480  1.0  0.0262
  C  C610  1  0.576050  0.447920  0.418800  1.0  0.3039
  C  C611  1  0.653720  0.479680  0.446780  1.0  -0.097
  C  C612  1  0.672240  0.496230  0.470620  1.0  -0.057
  C  C613  1  0.741020  0.370160  0.488320  1.0  0.0447
  C  C614  1  0.681970  0.359920  0.492220  1.0  -0.0503
  C  C615  1  0.650130  0.329200  0.473980  1.0  -0.1296
  C  C616  1  0.676690  0.309240  0.451890  1.0  -0.0291
  C  C617  1  0.643250  0.276390  0.433010  1.0  0.3238
  C  C618  1  0.735090  0.317200  0.448370  1.0  -0.1046
  C  C619  1  0.765750  0.348370  0.465980  1.0  -0.1304
  C  C620  1  0.832750  0.381730  0.512950  1.0  -0.0052
  C  C621  1  0.845800  0.319260  0.513760  1.0  -0.1325
  C  C622  1  0.901100  0.299660  0.518800  1.0  -0.1182
  C  C623  1  0.944400  0.342500  0.522640  1.0  -0.042
  C  C624  1  0.001360  0.319800  0.526750  1.0  0.3497
  C  C625  1  0.931750  0.403540  0.521310  1.0  -0.0974
  C  C626  1  0.877510  0.423600  0.516510  1.0  -0.1091
  C  C627  1  0.836330  0.486550  0.570360  1.0  -0.0334
  C  C628  1  0.835070  0.424430  0.573500  1.0  -0.0773
  C  C629  1  0.883000  0.392510  0.581070  1.0  -0.1852
  C  C630  1  0.933830  0.424520  0.585910  1.0  -0.054
  C  C631  1  0.983100  0.389970  0.591740  1.0  0.3153
  C  C632  1  0.935270  0.488040  0.583380  1.0  -0.0984
  C  C633  1  0.886480  0.519170  0.576060  1.0  -0.1169
  C  C634  1  0.767200  0.576780  0.570560  1.0  -0.0087
  C  C635  1  0.769120  0.589540  0.596920  1.0  -0.1312
  C  C636  1  0.749610  0.643870  0.606080  1.0  -0.1192
  C  C637  1  0.728850  0.687740  0.589450  1.0  -0.0726
  C  C638  1  0.709390  0.744620  0.598910  1.0  0.2465
  C  C639  1  0.727790  0.676830  0.563340  1.0  -0.1485
  C  C640  1  0.746640  0.621700  0.554130  1.0  -0.0501
  C  C641  1  0.303100  0.698290  0.270920  1.0  0.0307
  C  C642  1  0.258650  0.701720  0.289430  1.0  0.0746
  C  C643  1  0.257740  0.740510  0.267550  1.0  0.078
  C  C644  1  0.353850  0.673590  0.262920  1.0  -0.0125
  C  C645  1  0.234590  0.682130  0.311190  1.0  -0.0085
  C  C646  1  0.235390  0.787260  0.254350  1.0  -0.0049
  C  C647  1  0.371950  0.683040  0.236640  1.0  0.0109
  C  C648  1  0.330970  0.687670  0.217360  1.0  -0.0979
  C  C649  1  0.346070  0.699240  0.192360  1.0  -0.1319
  C  C650  1  0.403110  0.705540  0.186100  1.0  -0.0162
  C  C651  1  0.420460  0.717390  0.160500  1.0  0.319
  C  C652  1  0.445720  0.698890  0.204940  1.0  -0.1488
  C  C653  1  0.429640  0.688030  0.229860  1.0  -0.117
  C  C654  1  0.388640  0.638970  0.280850  1.0  0.008
  C  C655  1  0.418170  0.586750  0.273370  1.0  -0.1264
  C  C656  1  0.448980  0.553160  0.290660  1.0  -0.1027
  C  C657  1  0.450510  0.570790  0.316240  1.0  0.014
  C  C658  1  0.480190  0.533060  0.334070  1.0  0.2613
  C  C659  1  0.423230  0.623840  0.323860  1.0  -0.0975
  C  C660  1  0.392130  0.657180  0.306490  1.0  -0.0728
  C  C661  1  0.257050  0.627670  0.323910  1.0  -0.0628
  C  C662  1  0.279500  0.579230  0.309680  1.0  -0.0603
  C  C663  1  0.305060  0.530800  0.321460  1.0  -0.1489
  C  C664  1  0.308330  0.529570  0.347800  1.0  -0.0418
  C  C665  1  0.337790  0.480630  0.360370  1.0  0.3365
  C  C666  1  0.283840  0.576340  0.362440  1.0  -0.0925
  C  C667  1  0.257920  0.623890  0.350700  1.0  -0.0776
  C  C668  1  0.187910  0.717860  0.322690  1.0  0.0403
  C  C669  1  0.139260  0.691080  0.332540  1.0  -0.1195
  C  C670  1  0.095150  0.726370  0.342130  1.0  -0.0786
  C  C671  1  0.101680  0.789550  0.342740  1.0  -0.0544
  C  C672  1  0.055970  0.827460  0.351400  1.0  0.3552
  C  C673  1  0.151710  0.816680  0.333680  1.0  -0.1656
  C  C674  1  0.193650  0.780710  0.323380  1.0  -0.076
  C  C675  1  0.179770  0.814410  0.261220  1.0  0.0358
  C  C676  1  0.134090  0.776640  0.268430  1.0  -0.0903
  C  C677  1  0.082110  0.801820  0.275170  1.0  -0.1286
  C  C678  1  0.075710  0.863780  0.274750  1.0  0.0002
  C  C679  1  0.022830  0.891800  0.281560  1.0  0.1817
  C  C680  1  0.120520  0.902350  0.267660  1.0  -0.1664
  C  C681  1  0.172240  0.876680  0.260380  1.0  -0.09
  C  C682  1  0.268820  0.815380  0.233550  1.0  -0.0251
  C  C683  1  0.242790  0.833500  0.211160  1.0  -0.1008
  C  C684  1  0.274700  0.856910  0.191260  1.0  -0.0949
  C  C685  1  0.333720  0.862290  0.194020  1.0  -0.0319
  C  C686  1  0.368970  0.884140  0.173620  1.0  0.31
  C  C687  1  0.361040  0.844840  0.216760  1.0  -0.155
  C  C688  1  0.327950  0.821430  0.236190  1.0  -0.0907
  C  C689  1  0.792640  0.506690  0.024420  1.0  0.0104
  C  C690  1  0.747500  0.550620  0.020630  1.0  0.0755
  C  C691  1  0.744030  0.507380  0.040750  1.0  0.0547
  C  C692  1  0.843570  0.484230  0.016640  1.0  -0.0061
  C  C693  1  0.725990  0.597950  0.007690  1.0  0.0175
  C  C694  1  0.714570  0.481840  0.060290  1.0  -0.0134
  C  C695  1  0.942740  0.357330  0.034560  1.0  -0.0775
  C  C696  1  0.876150  0.440720  0.031800  1.0  0.0005
  C  C697  1  0.871650  0.440860  0.058470  1.0  -0.0833
  C  C698  1  0.901100  0.398510  0.072990  1.0  -0.1335
  C  C699  1  0.936750  0.357310  0.061170  1.0  0.0205
  C  C700  1  0.967190  0.314110  0.076330  1.0  0.3722
  C  C701  1  0.912410  0.397830  0.020250  1.0  -0.0581
  C  C702  1  0.865060  0.503510  0.991290  1.0  0.0192
  C  C703  1  0.921980  0.520180  0.987590  1.0  -0.1037
  C  C704  1  0.941730  0.536570  0.963750  1.0  -0.146
  C  C705  1  0.904220  0.536900  0.943480  1.0  0.0256
  C  C706  1  0.923950  0.552080  0.918800  1.0  0.3045
  C  C707  1  0.846280  0.520320  0.946780  1.0  -0.0966
  C  C708  1  0.827760  0.503770  0.970620  1.0  -0.0566
  C  C709  1  0.758980  0.629840  0.988320  1.0  0.0433
  C  C710  1  0.818030  0.640080  0.992220  1.0  -0.0517
  C  C711  1  0.849870  0.670800  0.973980  1.0  -0.1291
  C  C712  1  0.823310  0.690760  0.951890  1.0  -0.0282
  C  C713  1  0.856750  0.723610  0.933010  1.0  0.3252
  C  C714  1  0.764910  0.682800  0.948370  1.0  -0.105
  C  C715  1  0.734250  0.651630  0.965980  1.0  -0.1312
  C  C716  1  0.667250  0.618270  0.012950  1.0  -0.0052
  C  C717  1  0.654200  0.680740  0.013760  1.0  -0.1316
  C  C718  1  0.598900  0.700340  0.018800  1.0  -0.1206
  C  C719  1  0.555600  0.657500  0.022640  1.0  -0.0421
  C  C720  1  0.498640  0.680200  0.026750  1.0  0.3482
  C  C721  1  0.568250  0.596460  0.021310  1.0  -0.0951
  C  C722  1  0.622490  0.576400  0.016510  1.0  -0.1086
  C  C723  1  0.663670  0.513450  0.070360  1.0  -0.0352
  C  C724  1  0.664930  0.575570  0.073500  1.0  -0.078
  C  C725  1  0.617000  0.607490  0.081070  1.0  -0.1878
  C  C726  1  0.566170  0.575480  0.085910  1.0  -0.0567
  C  C727  1  0.516900  0.610030  0.091740  1.0  0.3165
  C  C728  1  0.564730  0.511960  0.083380  1.0  -0.1
  C  C729  1  0.613520  0.480830  0.076060  1.0  -0.1183
  C  C730  1  0.732800  0.423220  0.070560  1.0  -0.01
  C  C731  1  0.730880  0.410460  0.096920  1.0  -0.1329
  C  C732  1  0.750390  0.356130  0.106080  1.0  -0.1167
  C  C733  1  0.771150  0.312260  0.089450  1.0  -0.0738
  C  C734  1  0.790610  0.255380  0.098910  1.0  0.245
  C  C735  1  0.772210  0.323170  0.063340  1.0  -0.1495
  C  C736  1  0.753360  0.378300  0.054130  1.0  -0.0491
  C  C737  1  0.196900  0.301710  0.770920  1.0  0.0302
  C  C738  1  0.241350  0.298280  0.789430  1.0  0.0748
  C  C739  1  0.242260  0.259490  0.767550  1.0  0.0789
  C  C740  1  0.146150  0.326410  0.762920  1.0  -0.0126
  C  C741  1  0.265410  0.317870  0.811190  1.0  -0.0085
  C  C742  1  0.264610  0.212740  0.754350  1.0  -0.0049
  C  C743  1  0.128050  0.316960  0.736640  1.0  0.0112
  C  C744  1  0.169030  0.312330  0.717360  1.0  -0.0974
  C  C745  1  0.153930  0.300760  0.692360  1.0  -0.1331
  C  C746  1  0.096890  0.294460  0.686100  1.0  -0.0162
  C  C747  1  0.079540  0.282610  0.660500  1.0  0.3199
  C  C748  1  0.054280  0.301110  0.704940  1.0  -0.1514
  C  C749  1  0.070360  0.311970  0.729860  1.0  -0.1163
  C  C750  1  0.111360  0.361030  0.780850  1.0  0.0073
  C  C751  1  0.081830  0.413250  0.773370  1.0  -0.126
  C  C752  1  0.051020  0.446840  0.790660  1.0  -0.1017
  C  C753  1  0.049490  0.429210  0.816240  1.0  0.0135
  C  C754  1  0.019810  0.466940  0.834070  1.0  0.261
  C  C755  1  0.076770  0.376160  0.823860  1.0  -0.0989
  C  C756  1  0.107870  0.342820  0.806490  1.0  -0.0719
  C  C757  1  0.242950  0.372330  0.823910  1.0  -0.0628
  C  C758  1  0.220500  0.420770  0.809680  1.0  -0.0612
  C  C759  1  0.194940  0.469200  0.821460  1.0  -0.1485
  C  C760  1  0.191670  0.470430  0.847800  1.0  -0.0422
  C  C761  1  0.162210  0.519370  0.860370  1.0  0.3373
  C  C762  1  0.216160  0.423660  0.862440  1.0  -0.092
  C  C763  1  0.242080  0.376110  0.850700  1.0  -0.0773
  C  C764  1  0.312090  0.282140  0.822690  1.0  0.0406
  C  C765  1  0.360740  0.308920  0.832540  1.0  -0.1191
  C  C766  1  0.404850  0.273630  0.842130  1.0  -0.0774
  C  C767  1  0.398320  0.210450  0.842740  1.0  -0.052
  C  C768  1  0.444030  0.172540  0.851400  1.0  0.3548
  C  C769  1  0.348290  0.183320  0.833680  1.0  -0.1646
  C  C770  1  0.306350  0.219290  0.823380  1.0  -0.0734
  C  C771  1  0.320230  0.185590  0.761220  1.0  0.0366
  C  C772  1  0.365910  0.223360  0.768430  1.0  -0.0902
  C  C773  1  0.417890  0.198180  0.775170  1.0  -0.1284
  C  C774  1  0.424290  0.136220  0.774750  1.0  0.0
  C  C775  1  0.477170  0.108200  0.781560  1.0  0.1823
  C  C776  1  0.379480  0.097650  0.767660  1.0  -0.1662
  C  C777  1  0.327760  0.123320  0.760380  1.0  -0.0897
  C  C778  1  0.231180  0.184620  0.733550  1.0  -0.0238
  C  C779  1  0.257210  0.166500  0.711160  1.0  -0.1006
  C  C780  1  0.225300  0.143090  0.691260  1.0  -0.0937
  C  C781  1  0.166280  0.137710  0.694020  1.0  -0.0344
  C  C782  1  0.131030  0.115860  0.673620  1.0  0.309
  C  C783  1  0.138960  0.155160  0.716760  1.0  -0.1527
  C  C784  1  0.172050  0.178570  0.736190  1.0  -0.0895
  C  C785  1  0.707360  0.006690  0.024420  1.0  0.0106
  C  C786  1  0.752500  0.050620  0.020630  1.0  0.0757
  C  C787  1  0.755970  0.007380  0.040750  1.0  0.0551
  C  C788  1  0.656430  0.984230  0.016640  1.0  -0.0063
  C  C789  1  0.774010  0.097950  0.007690  1.0  0.0175
  C  C790  1  0.785430  0.981840  0.060290  1.0  -0.0127
  C  C791  1  0.557260  0.857330  0.034560  1.0  -0.0759
  C  C792  1  0.623850  0.940720  0.031800  1.0  -0.0002
  C  C793  1  0.628350  0.940860  0.058470  1.0  -0.0826
  C  C794  1  0.598900  0.898510  0.072990  1.0  -0.1323
  C  C795  1  0.563250  0.857310  0.061170  1.0  0.0197
  C  C796  1  0.532810  0.814110  0.076330  1.0  0.372
  C  C797  1  0.587590  0.897830  0.020250  1.0  -0.0566
  C  C798  1  0.634940  0.003510  0.991290  1.0  0.0195
  C  C799  1  0.578020  0.020180  0.987590  1.0  -0.1034
  C  C800  1  0.558270  0.036570  0.963750  1.0  -0.1468
  C  C801  1  0.595780  0.036900  0.943480  1.0  0.0259
  C  C802  1  0.576050  0.052080  0.918800  1.0  0.3041
  C  C803  1  0.653720  0.020320  0.946780  1.0  -0.0968
  C  C804  1  0.672240  0.003770  0.970620  1.0  -0.0594
  C  C805  1  0.741020  0.129840  0.988320  1.0  0.0442
  C  C806  1  0.681970  0.140080  0.992220  1.0  -0.0519
  C  C807  1  0.650130  0.170800  0.973980  1.0  -0.1306
  C  C808  1  0.676690  0.190760  0.951890  1.0  -0.0277
  C  C809  1  0.643250  0.223610  0.933010  1.0  0.3231
  C  C810  1  0.735090  0.182800  0.948370  1.0  -0.1047
  C  C811  1  0.765750  0.151630  0.965980  1.0  -0.1299
  C  C812  1  0.832750  0.118270  0.012950  1.0  -0.0051
  C  C813  1  0.845800  0.180740  0.013760  1.0  -0.131
  C  C814  1  0.901100  0.200340  0.018800  1.0  -0.1205
  C  C815  1  0.944400  0.157500  0.022640  1.0  -0.0417
  C  C816  1  0.001360  0.180200  0.026750  1.0  0.3501
  C  C817  1  0.931750  0.096460  0.021310  1.0  -0.0963
  C  C818  1  0.877510  0.076400  0.016510  1.0  -0.1101
  C  C819  1  0.836330  0.013450  0.070360  1.0  -0.0342
  C  C820  1  0.835070  0.075570  0.073500  1.0  -0.0772
  C  C821  1  0.883000  0.107490  0.081070  1.0  -0.1873
  C  C822  1  0.933830  0.075480  0.085910  1.0  -0.0538
  C  C823  1  0.983100  0.110030  0.091740  1.0  0.3146
  C  C824  1  0.935270  0.011960  0.083380  1.0  -0.0984
  C  C825  1  0.886480  0.980830  0.076060  1.0  -0.1175
  C  C826  1  0.767200  0.923220  0.070560  1.0  -0.0086
  C  C827  1  0.769120  0.910460  0.096920  1.0  -0.1316
  C  C828  1  0.749610  0.856130  0.106080  1.0  -0.1194
  C  C829  1  0.728850  0.812260  0.089450  1.0  -0.0717
  C  C830  1  0.709390  0.755380  0.098910  1.0  0.2467
  C  C831  1  0.727790  0.823170  0.063340  1.0  -0.1499
  C  C832  1  0.746640  0.878300  0.054130  1.0  -0.0505
  C  C833  1  0.303100  0.801710  0.770920  1.0  0.0307
  C  C834  1  0.258650  0.798280  0.789430  1.0  0.0746
  C  C835  1  0.257740  0.759490  0.767550  1.0  0.0783
  C  C836  1  0.353850  0.826410  0.762920  1.0  -0.0124
  C  C837  1  0.234590  0.817870  0.811190  1.0  -0.009
  C  C838  1  0.235390  0.712740  0.754350  1.0  -0.0049
  C  C839  1  0.371950  0.816960  0.736640  1.0  0.0112
  C  C840  1  0.330970  0.812330  0.717360  1.0  -0.098
  C  C841  1  0.346070  0.800760  0.692360  1.0  -0.1321
  C  C842  1  0.403110  0.794460  0.686100  1.0  -0.017
  C  C843  1  0.420460  0.782610  0.660500  1.0  0.3199
  C  C844  1  0.445720  0.801110  0.704940  1.0  -0.1482
  C  C845  1  0.429640  0.811970  0.729860  1.0  -0.1172
  C  C846  1  0.388640  0.861030  0.780850  1.0  0.0079
  C  C847  1  0.418170  0.913250  0.773370  1.0  -0.1272
  C  C848  1  0.448980  0.946840  0.790660  1.0  -0.1024
  C  C849  1  0.450510  0.929210  0.816240  1.0  0.0149
  C  C850  1  0.480190  0.966940  0.834070  1.0  0.2611
  C  C851  1  0.423230  0.876160  0.823860  1.0  -0.0986
  C  C852  1  0.392130  0.842820  0.806490  1.0  -0.0737
  C  C853  1  0.257050  0.872330  0.823910  1.0  -0.0627
  C  C854  1  0.279500  0.920770  0.809680  1.0  -0.0612
  C  C855  1  0.305060  0.969200  0.821460  1.0  -0.1472
  C  C856  1  0.308330  0.970430  0.847800  1.0  -0.042
  C  C857  1  0.337790  0.019370  0.860370  1.0  0.3362
  C  C858  1  0.283840  0.923660  0.862440  1.0  -0.0923
  C  C859  1  0.257920  0.876110  0.850700  1.0  -0.0778
  C  C860  1  0.187910  0.782140  0.822690  1.0  0.0402
  C  C861  1  0.139260  0.808920  0.832540  1.0  -0.1184
  C  C862  1  0.095150  0.773630  0.842130  1.0  -0.0786
  C  C863  1  0.101680  0.710450  0.842740  1.0  -0.0547
  C  C864  1  0.055970  0.672540  0.851400  1.0  0.3552
  C  C865  1  0.151710  0.683320  0.833680  1.0  -0.1649
  C  C866  1  0.193650  0.719290  0.823380  1.0  -0.075
  C  C867  1  0.179770  0.685590  0.761220  1.0  0.036
  C  C868  1  0.134090  0.723360  0.768430  1.0  -0.089
  C  C869  1  0.082110  0.698180  0.775170  1.0  -0.1297
  C  C870  1  0.075710  0.636220  0.774750  1.0  0.0
  C  C871  1  0.022830  0.608200  0.781560  1.0  0.1821
  C  C872  1  0.120520  0.597650  0.767660  1.0  -0.166
  C  C873  1  0.172240  0.623320  0.760380  1.0  -0.0906
  C  C874  1  0.268820  0.684620  0.733550  1.0  -0.0253
  C  C875  1  0.242790  0.666500  0.711160  1.0  -0.1003
  C  C876  1  0.274700  0.643090  0.691260  1.0  -0.0938
  C  C877  1  0.333720  0.637710  0.694020  1.0  -0.0336
  C  C878  1  0.368970  0.615860  0.673620  1.0  0.3104
  C  C879  1  0.361040  0.655160  0.716760  1.0  -0.1544
  C  C880  1  0.327950  0.678570  0.736190  1.0  -0.0918
  C  C881  1  0.792640  0.993310  0.524420  1.0  0.0106
  C  C882  1  0.747500  0.949380  0.520630  1.0  0.0755
  C  C883  1  0.744030  0.992620  0.540750  1.0  0.0547
  C  C884  1  0.843570  0.015770  0.516640  1.0  -0.0062
  C  C885  1  0.725990  0.902050  0.507690  1.0  0.0172
  C  C886  1  0.714570  0.018160  0.560290  1.0  -0.0132
  C  C887  1  0.942740  0.142670  0.534560  1.0  -0.0776
  C  C888  1  0.876150  0.059280  0.531800  1.0  -0.0002
  C  C889  1  0.871650  0.059140  0.558470  1.0  -0.0835
  C  C890  1  0.901100  0.101490  0.572990  1.0  -0.1331
  C  C891  1  0.936750  0.142690  0.561170  1.0  0.0216
  C  C892  1  0.967190  0.185890  0.576330  1.0  0.3709
  C  C893  1  0.912410  0.102170  0.520250  1.0  -0.0589
  C  C894  1  0.865060  0.996490  0.491290  1.0  0.0198
  C  C895  1  0.921980  0.979820  0.487590  1.0  -0.1038
  C  C896  1  0.941730  0.963430  0.463750  1.0  -0.1455
  C  C897  1  0.904220  0.963100  0.443480  1.0  0.0258
  C  C898  1  0.923950  0.947920  0.418800  1.0  0.3044
  C  C899  1  0.846280  0.979680  0.446780  1.0  -0.0975
  C  C900  1  0.827760  0.996230  0.470620  1.0  -0.0559
  C  C901  1  0.758980  0.870160  0.488320  1.0  0.0438
  C  C902  1  0.818030  0.859920  0.492220  1.0  -0.0511
  C  C903  1  0.849870  0.829200  0.473980  1.0  -0.1296
  C  C904  1  0.823310  0.809240  0.451890  1.0  -0.0293
  C  C905  1  0.856750  0.776390  0.433010  1.0  0.3263
  C  C906  1  0.764910  0.817200  0.448370  1.0  -0.1043
  C  C907  1  0.734250  0.848370  0.465980  1.0  -0.1306
  C  C908  1  0.667250  0.881730  0.512950  1.0  -0.0052
  C  C909  1  0.654200  0.819260  0.513760  1.0  -0.1329
  C  C910  1  0.598900  0.799660  0.518800  1.0  -0.1184
  C  C911  1  0.555600  0.842500  0.522640  1.0  -0.043
  C  C912  1  0.498640  0.819800  0.526750  1.0  0.3483
  C  C913  1  0.568250  0.903540  0.521310  1.0  -0.0967
  C  C914  1  0.622490  0.923600  0.516510  1.0  -0.1083
  C  C915  1  0.663670  0.986550  0.570360  1.0  -0.0351
  C  C916  1  0.664930  0.924430  0.573500  1.0  -0.0782
  C  C917  1  0.617000  0.892510  0.581070  1.0  -0.1862
  C  C918  1  0.566170  0.924520  0.585910  1.0  -0.0562
  C  C919  1  0.516900  0.889970  0.591740  1.0  0.3165
  C  C920  1  0.564730  0.988040  0.583380  1.0  -0.1013
  C  C921  1  0.613520  0.019170  0.576060  1.0  -0.1168
  C  C922  1  0.732800  0.076780  0.570560  1.0  -0.0099
  C  C923  1  0.730880  0.089540  0.596920  1.0  -0.1319
  C  C924  1  0.750390  0.143870  0.606080  1.0  -0.117
  C  C925  1  0.771150  0.187740  0.589450  1.0  -0.0722
  C  C926  1  0.790610  0.244620  0.598910  1.0  0.2457
  C  C927  1  0.772210  0.176830  0.563340  1.0  -0.1466
  C  C928  1  0.753360  0.121700  0.554130  1.0  -0.0499
  C  C929  1  0.196900  0.198290  0.270920  1.0  0.0303
  C  C930  1  0.241350  0.201720  0.289430  1.0  0.075
  C  C931  1  0.242260  0.240510  0.267550  1.0  0.0789
  C  C932  1  0.146150  0.173590  0.262920  1.0  -0.0127
  C  C933  1  0.265410  0.182130  0.311190  1.0  -0.008
  C  C934  1  0.264610  0.287260  0.254350  1.0  -0.0048
  C  C935  1  0.128050  0.183040  0.236640  1.0  0.0105
  C  C936  1  0.169030  0.187670  0.217360  1.0  -0.0998
  C  C937  1  0.153930  0.199240  0.192360  1.0  -0.1339
  C  C938  1  0.096890  0.205540  0.186100  1.0  -0.0154
  C  C939  1  0.079540  0.217390  0.160500  1.0  0.3195
  C  C940  1  0.054280  0.198890  0.204940  1.0  -0.1508
  C  C941  1  0.070360  0.188030  0.229860  1.0  -0.1163
  C  C942  1  0.111360  0.138970  0.280850  1.0  0.0079
  C  C943  1  0.081830  0.086750  0.273370  1.0  -0.1257
  C  C944  1  0.051020  0.053160  0.290660  1.0  -0.1015
  C  C945  1  0.049490  0.070790  0.316240  1.0  0.0124
  C  C946  1  0.019810  0.033060  0.334070  1.0  0.2615
  C  C947  1  0.076770  0.123840  0.323860  1.0  -0.0987
  C  C948  1  0.107870  0.157180  0.306490  1.0  -0.0712
  C  C949  1  0.242950  0.127670  0.323910  1.0  -0.0628
  C  C950  1  0.220500  0.079230  0.309680  1.0  -0.0609
  C  C951  1  0.194940  0.030800  0.321460  1.0  -0.1496
  C  C952  1  0.191670  0.029570  0.347800  1.0  -0.042
  C  C953  1  0.162210  0.980630  0.360370  1.0  0.3376
  C  C954  1  0.216160  0.076340  0.362440  1.0  -0.0921
  C  C955  1  0.242080  0.123890  0.350700  1.0  -0.0772
  C  C956  1  0.312090  0.217860  0.322690  1.0  0.0409
  C  C957  1  0.360740  0.191080  0.332540  1.0  -0.1204
  C  C958  1  0.404850  0.226370  0.342130  1.0  -0.0781
  C  C959  1  0.398320  0.289550  0.342740  1.0  -0.0516
  C  C960  1  0.444030  0.327460  0.351400  1.0  0.3542
  C  C961  1  0.348290  0.316680  0.333680  1.0  -0.166
  C  C962  1  0.306350  0.280710  0.323380  1.0  -0.0745
  C  C963  1  0.320230  0.314410  0.261220  1.0  0.0365
  C  C964  1  0.365910  0.276640  0.268430  1.0  -0.0911
  C  C965  1  0.417890  0.301820  0.275170  1.0  -0.1284
  C  C966  1  0.424290  0.363780  0.274750  1.0  -0.0006
  C  C967  1  0.477170  0.391800  0.281560  1.0  0.1825
  C  C968  1  0.379480  0.402350  0.267660  1.0  -0.1667
  C  C969  1  0.327760  0.376680  0.260380  1.0  -0.09
  C  C970  1  0.231180  0.315380  0.233550  1.0  -0.0237
  C  C971  1  0.257210  0.333500  0.211160  1.0  -0.1008
  C  C972  1  0.225300  0.356910  0.191260  1.0  -0.094
  C  C973  1  0.166280  0.362290  0.194020  1.0  -0.0335
  C  C974  1  0.131030  0.384140  0.173620  1.0  0.3086
  C  C975  1  0.138960  0.344840  0.216760  1.0  -0.1543
  C  C976  1  0.172050  0.321430  0.236190  1.0  -0.0902
  C  C977  1  0.292640  0.506690  0.475580  1.0  0.0103
  C  C978  1  0.247500  0.550620  0.479370  1.0  0.0756
  C  C979  1  0.244030  0.507380  0.459250  1.0  0.0547
  C  C980  1  0.343570  0.484230  0.483360  1.0  -0.0063
  C  C981  1  0.225990  0.597950  0.492310  1.0  0.0171
  C  C982  1  0.214570  0.481840  0.439710  1.0  -0.0133
  C  C983  1  0.442740  0.357330  0.465440  1.0  -0.0767
  C  C984  1  0.376150  0.440720  0.468200  1.0  0.0003
  C  C985  1  0.371650  0.440860  0.441530  1.0  -0.0835
  C  C986  1  0.401100  0.398510  0.427010  1.0  -0.1328
  C  C987  1  0.436750  0.357310  0.438830  1.0  0.0196
  C  C988  1  0.467190  0.314110  0.423670  1.0  0.3722
  C  C989  1  0.412410  0.397830  0.479750  1.0  -0.0578
  C  C990  1  0.365060  0.503510  0.508710  1.0  0.0195
  C  C991  1  0.421980  0.520180  0.512410  1.0  -0.1039
  C  C992  1  0.441730  0.536570  0.536250  1.0  -0.1461
  C  C993  1  0.404220  0.536900  0.556520  1.0  0.0265
  C  C994  1  0.423950  0.552080  0.581200  1.0  0.3029
  C  C995  1  0.346280  0.520320  0.553220  1.0  -0.0983
  C  C996  1  0.327760  0.503770  0.529380  1.0  -0.0572
  C  C997  1  0.258980  0.629840  0.511680  1.0  0.0437
  C  C998  1  0.318030  0.640080  0.507780  1.0  -0.0513
  C  C999  1  0.349870  0.670800  0.526020  1.0  -0.1283
  C  C1000  1  0.323310  0.690760  0.548110  1.0  -0.0298
  C  C1001  1  0.356750  0.723610  0.566990  1.0  0.3251
  C  C1002  1  0.264910  0.682800  0.551630  1.0  -0.1051
  C  C1003  1  0.234250  0.651630  0.534020  1.0  -0.1308
  C  C1004  1  0.167250  0.618270  0.487050  1.0  -0.0047
  C  C1005  1  0.154200  0.680740  0.486240  1.0  -0.1329
  C  C1006  1  0.098900  0.700340  0.481200  1.0  -0.1211
  C  C1007  1  0.055600  0.657500  0.477360  1.0  -0.0413
  C  C1008  1  0.998640  0.680200  0.473250  1.0  0.3486
  C  C1009  1  0.068250  0.596460  0.478690  1.0  -0.0957
  C  C1010  1  0.122490  0.576400  0.483490  1.0  -0.1104
  C  C1011  1  0.163670  0.513450  0.429640  1.0  -0.0356
  C  C1012  1  0.164930  0.575570  0.426500  1.0  -0.0775
  C  C1013  1  0.117000  0.607490  0.418930  1.0  -0.1883
  C  C1014  1  0.066170  0.575480  0.414090  1.0  -0.0562
  C  C1015  1  0.016900  0.610030  0.408260  1.0  0.316
  C  C1016  1  0.064730  0.511960  0.416620  1.0  -0.1005
  C  C1017  1  0.113520  0.480830  0.423940  1.0  -0.1183
  C  C1018  1  0.232800  0.423220  0.429440  1.0  -0.01
  C  C1019  1  0.230880  0.410460  0.403080  1.0  -0.1319
  C  C1020  1  0.250390  0.356130  0.393920  1.0  -0.1168
  C  C1021  1  0.271150  0.312260  0.410550  1.0  -0.0735
  C  C1022  1  0.290610  0.255380  0.401090  1.0  0.2452
  C  C1023  1  0.272210  0.323170  0.436660  1.0  -0.1485
  C  C1024  1  0.253360  0.378300  0.445870  1.0  -0.0481
  C  C1025  1  0.696900  0.301710  0.729080  1.0  0.0301
  C  C1026  1  0.741350  0.298280  0.710570  1.0  0.0745
  C  C1027  1  0.742260  0.259490  0.732450  1.0  0.0795
  C  C1028  1  0.646150  0.326410  0.737080  1.0  -0.0124
  C  C1029  1  0.765410  0.317870  0.688810  1.0  -0.0079
  C  C1030  1  0.764610  0.212740  0.745650  1.0  -0.0053
  C  C1031  1  0.628050  0.316960  0.763360  1.0  0.0116
  C  C1032  1  0.669030  0.312330  0.782640  1.0  -0.0999
  C  C1033  1  0.653930  0.300760  0.807640  1.0  -0.1323
  C  C1034  1  0.596890  0.294460  0.813900  1.0  -0.0121
  C  C1035  1  0.579540  0.282610  0.839500  1.0  0.3212
  C  C1036  1  0.554280  0.301110  0.795060  1.0  -0.1523
  C  C1037  1  0.570360  0.311970  0.770140  1.0  -0.1161
  C  C1038  1  0.611360  0.361030  0.719150  1.0  0.0071
  C  C1039  1  0.581830  0.413250  0.726630  1.0  -0.126
  C  C1040  1  0.551020  0.446840  0.709340  1.0  -0.1016
  C  C1041  1  0.549490  0.429210  0.683760  1.0  0.0134
  C  C1042  1  0.519810  0.466940  0.665930  1.0  0.2608
  C  C1043  1  0.576770  0.376160  0.676140  1.0  -0.0969
  C  C1044  1  0.607870  0.342820  0.693510  1.0  -0.0727
  C  C1045  1  0.742950  0.372330  0.676090  1.0  -0.063
  C  C1046  1  0.720500  0.420770  0.690320  1.0  -0.0632
  C  C1047  1  0.694940  0.469200  0.678540  1.0  -0.1491
  C  C1048  1  0.691670  0.470430  0.652200  1.0  -0.0412
  C  C1049  1  0.662210  0.519370  0.639630  1.0  0.338
  C  C1050  1  0.716160  0.423660  0.637560  1.0  -0.09
  C  C1051  1  0.742080  0.376110  0.649300  1.0  -0.0785
  C  C1052  1  0.812090  0.282140  0.677310  1.0  0.0404
  C  C1053  1  0.860740  0.308920  0.667460  1.0  -0.1188
  C  C1054  1  0.904850  0.273630  0.657870  1.0  -0.0772
  C  C1055  1  0.898320  0.210450  0.657260  1.0  -0.054
  C  C1056  1  0.944030  0.172540  0.648600  1.0  0.3552
  C  C1057  1  0.848290  0.183320  0.666320  1.0  -0.1644
  C  C1058  1  0.806350  0.219290  0.676620  1.0  -0.0735
  C  C1059  1  0.820230  0.185590  0.738780  1.0  0.0375
  C  C1060  1  0.865910  0.223360  0.731570  1.0  -0.0914
  C  C1061  1  0.917890  0.198180  0.724830  1.0  -0.128
  C  C1062  1  0.924290  0.136220  0.725250  1.0  0.0015
  C  C1063  1  0.977170  0.108200  0.718440  1.0  0.1817
  C  C1064  1  0.879480  0.097650  0.732340  1.0  -0.1662
  C  C1065  1  0.827760  0.123320  0.739620  1.0  -0.0893
  C  C1066  1  0.731180  0.184620  0.766450  1.0  -0.0242
  C  C1067  1  0.757210  0.166500  0.788840  1.0  -0.1003
  C  C1068  1  0.725300  0.143090  0.808740  1.0  -0.0936
  C  C1069  1  0.666280  0.137710  0.805980  1.0  -0.0351
  C  C1070  1  0.631030  0.115860  0.826380  1.0  0.309
  C  C1071  1  0.638960  0.155160  0.783240  1.0  -0.1526
  C  C1072  1  0.672050  0.178570  0.763810  1.0  -0.0898
  C  C1073  1  0.207360  0.493310  0.975580  1.0  0.0105
  C  C1074  1  0.252500  0.449380  0.979370  1.0  0.0757
  C  C1075  1  0.255970  0.492620  0.959250  1.0  0.055
  C  C1076  1  0.156430  0.515770  0.983360  1.0  -0.0067
  C  C1077  1  0.274010  0.402050  0.992310  1.0  0.0169
  C  C1078  1  0.285430  0.518160  0.939710  1.0  -0.0127
  C  C1079  1  0.057260  0.642670  0.965440  1.0  -0.0771
  C  C1080  1  0.123850  0.559280  0.968200  1.0  -0.0009
  C  C1081  1  0.128350  0.559140  0.941530  1.0  -0.0849
  C  C1082  1  0.098900  0.601490  0.927010  1.0  -0.1304
  C  C1083  1  0.063250  0.642690  0.938830  1.0  0.0209
  C  C1084  1  0.032810  0.685890  0.923670  1.0  0.3716
  C  C1085  1  0.087590  0.602170  0.979750  1.0  -0.0571
  C  C1086  1  0.134940  0.496490  0.008710  1.0  0.0204
  C  C1087  1  0.078020  0.479820  0.012410  1.0  -0.1038
  C  C1088  1  0.058270  0.463430  0.036250  1.0  -0.1471
  C  C1089  1  0.095780  0.463100  0.056520  1.0  0.0275
  C  C1090  1  0.076050  0.447920  0.081200  1.0  0.3035
  C  C1091  1  0.153720  0.479680  0.053220  1.0  -0.0963
  C  C1092  1  0.172240  0.496230  0.029380  1.0  -0.0604
  C  C1093  1  0.241020  0.370160  0.011680  1.0  0.0449
  C  C1094  1  0.181970  0.359920  0.007780  1.0  -0.0494
  C  C1095  1  0.150130  0.329200  0.026020  1.0  -0.1292
  C  C1096  1  0.176690  0.309240  0.048110  1.0  -0.0292
  C  C1097  1  0.143250  0.276390  0.066990  1.0  0.3254
  C  C1098  1  0.235090  0.317200  0.051630  1.0  -0.1045
  C  C1099  1  0.265750  0.348370  0.034020  1.0  -0.1303
  C  C1100  1  0.332750  0.381730  0.987050  1.0  -0.0045
  C  C1101  1  0.345800  0.319260  0.986240  1.0  -0.1328
  C  C1102  1  0.401100  0.299660  0.981200  1.0  -0.1172
  C  C1103  1  0.444400  0.342500  0.977360  1.0  -0.0398
  C  C1104  1  0.501360  0.319800  0.973250  1.0  0.3488
  C  C1105  1  0.431750  0.403540  0.978690  1.0  -0.0976
  C  C1106  1  0.377510  0.423600  0.983490  1.0  -0.1123
  C  C1107  1  0.336330  0.486550  0.929640  1.0  -0.0339
  C  C1108  1  0.335070  0.424430  0.926500  1.0  -0.0768
  C  C1109  1  0.383000  0.392510  0.918930  1.0  -0.1876
  C  C1110  1  0.433830  0.424520  0.914090  1.0  -0.0551
  C  C1111  1  0.483100  0.389970  0.908260  1.0  0.3147
  C  C1112  1  0.435270  0.488040  0.916620  1.0  -0.098
  C  C1113  1  0.386480  0.519170  0.923940  1.0  -0.1157
  C  C1114  1  0.267200  0.576780  0.929440  1.0  -0.0088
  C  C1115  1  0.269120  0.589540  0.903080  1.0  -0.1321
  C  C1116  1  0.249610  0.643870  0.893920  1.0  -0.1178
  C  C1117  1  0.228850  0.687740  0.910550  1.0  -0.0723
  C  C1118  1  0.209390  0.744620  0.901090  1.0  0.2465
  C  C1119  1  0.227790  0.676830  0.936660  1.0  -0.1502
  C  C1120  1  0.246640  0.621700  0.945870  1.0  -0.0499
  C  C1121  1  0.803100  0.698290  0.229080  1.0  0.0308
  C  C1122  1  0.758650  0.701720  0.210570  1.0  0.0747
  C  C1123  1  0.757740  0.740510  0.232450  1.0  0.0782
  C  C1124  1  0.853850  0.673590  0.237080  1.0  -0.0124
  C  C1125  1  0.734590  0.682130  0.188810  1.0  -0.0077
  C  C1126  1  0.735390  0.787260  0.245650  1.0  -0.0051
  C  C1127  1  0.871950  0.683040  0.263360  1.0  0.0113
  C  C1128  1  0.830970  0.687670  0.282640  1.0  -0.098
  C  C1129  1  0.846070  0.699240  0.307640  1.0  -0.1331
  C  C1130  1  0.903110  0.705540  0.313900  1.0  -0.0149
  C  C1131  1  0.920460  0.717390  0.339500  1.0  0.3194
  C  C1132  1  0.945720  0.698890  0.295060  1.0  -0.1487
  C  C1133  1  0.929640  0.688030  0.270140  1.0  -0.1166
  C  C1134  1  0.888640  0.638970  0.219150  1.0  0.0076
  C  C1135  1  0.918170  0.586750  0.226630  1.0  -0.1261
  C  C1136  1  0.948980  0.553160  0.209340  1.0  -0.1022
  C  C1137  1  0.950510  0.570790  0.183760  1.0  0.0134
  C  C1138  1  0.980190  0.533060  0.165930  1.0  0.2612
  C  C1139  1  0.923230  0.623840  0.176140  1.0  -0.097
  C  C1140  1  0.892130  0.657180  0.193510  1.0  -0.0735
  C  C1141  1  0.757050  0.627670  0.176090  1.0  -0.0628
  C  C1142  1  0.779500  0.579230  0.190320  1.0  -0.0624
  C  C1143  1  0.805060  0.530800  0.178540  1.0  -0.1491
  C  C1144  1  0.808330  0.529570  0.152200  1.0  -0.042
  C  C1145  1  0.837790  0.480630  0.139630  1.0  0.3369
  C  C1146  1  0.783840  0.576340  0.137560  1.0  -0.091
  C  C1147  1  0.757920  0.623890  0.149300  1.0  -0.0779
  C  C1148  1  0.687910  0.717860  0.177310  1.0  0.0401
  C  C1149  1  0.639260  0.691080  0.167460  1.0  -0.1197
  C  C1150  1  0.595150  0.726370  0.157870  1.0  -0.0786
  C  C1151  1  0.601680  0.789550  0.157260  1.0  -0.0549
  C  C1152  1  0.555970  0.827460  0.148600  1.0  0.3553
  C  C1153  1  0.651710  0.816680  0.166320  1.0  -0.165
  C  C1154  1  0.693650  0.780710  0.176620  1.0  -0.0763
  C  C1155  1  0.679770  0.814410  0.238780  1.0  0.0369
  C  C1156  1  0.634090  0.776640  0.231570  1.0  -0.0903
  C  C1157  1  0.582110  0.801820  0.224830  1.0  -0.1293
  C  C1158  1  0.575710  0.863780  0.225250  1.0  0.0009
  C  C1159  1  0.522830  0.891800  0.218440  1.0  0.1814
  C  C1160  1  0.620520  0.902350  0.232340  1.0  -0.1683
  C  C1161  1  0.672240  0.876680  0.239620  1.0  -0.0904
  C  C1162  1  0.768820  0.815380  0.266450  1.0  -0.0253
  C  C1163  1  0.742790  0.833500  0.288840  1.0  -0.1019
  C  C1164  1  0.774700  0.856910  0.308740  1.0  -0.0947
  C  C1165  1  0.833720  0.862290  0.305980  1.0  -0.0341
  C  C1166  1  0.868970  0.884140  0.326380  1.0  0.3117
  C  C1167  1  0.861040  0.844840  0.283240  1.0  -0.1547
  C  C1168  1  0.827950  0.821430  0.263810  1.0  -0.0906
  N  N1169  1  0.492380  0.219410  0.911700  1.0  -0.4342
  N  N1170  1  0.440530  0.936390  0.101270  1.0  -0.4486
  N  N1171  1  0.383280  0.752180  0.081690  1.0  -0.4089
  N  N1172  1  0.953350  0.803000  0.969510  1.0  -0.415
  N  N1173  1  0.979900  0.856500  0.904230  1.0  -0.4394
  N  N1174  1  0.306020  0.291200  0.893560  1.0  -0.4454
  N  N1175  1  0.567330  0.225880  0.360230  1.0  -0.4383
  N  N1176  1  0.497660  0.999360  0.152480  1.0  -0.4261
  N  N1177  1  0.637450  0.942620  0.129520  1.0  -0.4851
  N  N1178  1  0.978720  0.360530  0.142120  1.0  -0.428
  N  N1179  1  0.019300  0.417010  0.212400  1.0  -0.4469
  N  N1180  1  0.601460  0.401260  0.341960  1.0  -0.3896
  N  N1181  1  0.007620  0.780590  0.411700  1.0  -0.4342
  N  N1182  1  0.059470  0.063610  0.601270  1.0  -0.449
  N  N1183  1  0.116720  0.247820  0.581690  1.0  -0.4099
  N  N1184  1  0.546650  0.197000  0.469510  1.0  -0.4155
  N  N1185  1  0.520100  0.143500  0.404230  1.0  -0.4378
  N  N1186  1  0.193980  0.708800  0.393560  1.0  -0.4433
  N  N1187  1  0.932670  0.774120  0.860230  1.0  -0.4382
  N  N1188  1  0.002340  0.000640  0.652480  1.0  -0.4256
  N  N1189  1  0.862550  0.057380  0.629520  1.0  -0.4865
  N  N1190  1  0.521280  0.639470  0.642120  1.0  -0.4276
  N  N1191  1  0.480700  0.582990  0.712400  1.0  -0.446
  N  N1192  1  0.898540  0.598740  0.841960  1.0  -0.3887
  N  N1193  1  0.507620  0.719410  0.588300  1.0  -0.4359
  N  N1194  1  0.559470  0.436390  0.398730  1.0  -0.4497
  N  N1195  1  0.616720  0.252180  0.418310  1.0  -0.4088
  N  N1196  1  0.046650  0.303000  0.530490  1.0  -0.4153
  N  N1197  1  0.020100  0.356500  0.595770  1.0  -0.4393
  N  N1198  1  0.693980  0.791200  0.606440  1.0  -0.4438
  N  N1199  1  0.432670  0.725880  0.139770  1.0  -0.4369
  N  N1200  1  0.502340  0.499360  0.347520  1.0  -0.426
  N  N1201  1  0.362550  0.442620  0.370480  1.0  -0.4865
  N  N1202  1  0.021280  0.860530  0.357880  1.0  -0.4292
  N  N1203  1  0.980700  0.917010  0.287600  1.0  -0.4473
  N  N1204  1  0.398540  0.901260  0.158040  1.0  -0.389
  N  N1205  1  0.992380  0.280590  0.088300  1.0  -0.4329
  N  N1206  1  0.940530  0.563610  0.898730  1.0  -0.4499
  N  N1207  1  0.883280  0.747820  0.918310  1.0  -0.4111
  N  N1208  1  0.453350  0.697000  0.030490  1.0  -0.4151
  N  N1209  1  0.479900  0.643500  0.095770  1.0  -0.439
  N  N1210  1  0.806020  0.208800  0.106440  1.0  -0.4445
  N  N1211  1  0.067330  0.274120  0.639770  1.0  -0.4385
  N  N1212  1  0.997660  0.500640  0.847520  1.0  -0.4244
  N  N1213  1  0.137450  0.557380  0.870480  1.0  -0.4847
  N  N1214  1  0.478720  0.139470  0.857880  1.0  -0.4267
  N  N1215  1  0.519300  0.082990  0.787600  1.0  -0.4459
  N  N1216  1  0.101460  0.098740  0.658040  1.0  -0.3906
  N  N1217  1  0.507620  0.780590  0.088300  1.0  -0.4344
  N  N1218  1  0.559470  0.063610  0.898730  1.0  -0.4502
  N  N1219  1  0.616720  0.247820  0.918310  1.0  -0.4098
  N  N1220  1  0.046650  0.197000  0.030490  1.0  -0.4152
  N  N1221  1  0.020100  0.143500  0.095770  1.0  -0.4386
  N  N1222  1  0.693980  0.708800  0.106440  1.0  -0.4433
  N  N1223  1  0.432670  0.774120  0.639770  1.0  -0.4377
  N  N1224  1  0.502340  0.000640  0.847520  1.0  -0.4251
  N  N1225  1  0.362550  0.057380  0.870480  1.0  -0.4867
  N  N1226  1  0.021280  0.639470  0.857880  1.0  -0.4279
  N  N1227  1  0.980700  0.582990  0.787600  1.0  -0.4453
  N  N1228  1  0.398540  0.598740  0.658040  1.0  -0.3886
  N  N1229  1  0.992380  0.219410  0.588300  1.0  -0.4344
  N  N1230  1  0.940530  0.936390  0.398730  1.0  -0.4494
  N  N1231  1  0.883280  0.752180  0.418310  1.0  -0.409
  N  N1232  1  0.453350  0.803000  0.530490  1.0  -0.4155
  N  N1233  1  0.479900  0.856500  0.595770  1.0  -0.4396
  N  N1234  1  0.806020  0.291200  0.606440  1.0  -0.445
  N  N1235  1  0.067330  0.225880  0.139770  1.0  -0.4378
  N  N1236  1  0.997660  0.999360  0.347520  1.0  -0.4249
  N  N1237  1  0.137450  0.942620  0.370480  1.0  -0.4853
  N  N1238  1  0.478720  0.360530  0.357880  1.0  -0.4283
  N  N1239  1  0.519300  0.417010  0.287600  1.0  -0.4463
  N  N1240  1  0.101460  0.401260  0.158040  1.0  -0.3894
  N  N1241  1  0.492380  0.280590  0.411700  1.0  -0.433
  N  N1242  1  0.440530  0.563610  0.601270  1.0  -0.4485
  N  N1243  1  0.383280  0.747820  0.581690  1.0  -0.4117
  N  N1244  1  0.953350  0.697000  0.469510  1.0  -0.4148
  N  N1245  1  0.979900  0.643500  0.404230  1.0  -0.4385
  N  N1246  1  0.306020  0.208800  0.393560  1.0  -0.4443
  N  N1247  1  0.567330  0.274120  0.860230  1.0  -0.4389
  N  N1248  1  0.497660  0.500640  0.652480  1.0  -0.4255
  N  N1249  1  0.637450  0.557380  0.629520  1.0  -0.4848
  N  N1250  1  0.978720  0.139470  0.642120  1.0  -0.4264
  N  N1251  1  0.019300  0.082990  0.712400  1.0  -0.4451
  N  N1252  1  0.601460  0.098740  0.841960  1.0  -0.3898
  N  N1253  1  0.007620  0.719410  0.911700  1.0  -0.435
  N  N1254  1  0.059470  0.436390  0.101270  1.0  -0.4491
  N  N1255  1  0.116720  0.252180  0.081690  1.0  -0.4079
  N  N1256  1  0.546650  0.303000  0.969510  1.0  -0.4155
  N  N1257  1  0.520100  0.356500  0.904230  1.0  -0.4383
  N  N1258  1  0.193980  0.791200  0.893560  1.0  -0.4442
  N  N1259  1  0.932670  0.725880  0.360230  1.0  -0.4377
  N  N1260  1  0.002340  0.499360  0.152480  1.0  -0.4265
  N  N1261  1  0.862550  0.442620  0.129520  1.0  -0.4862
  N  N1262  1  0.521280  0.860530  0.142120  1.0  -0.4288
  N  N1263  1  0.480700  0.917010  0.212400  1.0  -0.4473
  N  N1264  1  0.898540  0.901260  0.341960  1.0  -0.3894
