# generated using pymatgen
data_CuH12(C5N)3
_symmetry_space_group_name_H-M   'P 1'
_cell_length_a   18.27200000
_cell_length_b   23.49800000
_cell_length_c   29.93500000
_cell_angle_alpha   90.00000000
_cell_angle_beta   90.00000000
_cell_angle_gamma   90.00000000
_symmetry_Int_Tables_number   1
_chemical_formula_structural   CuH12(C5N)3
_chemical_formula_sum   'Cu32 H384 C480 N96'
_cell_volume   12852.75557536
_cell_formula_units_Z   32
loop_
 _symmetry_equiv_pos_site_id
 _symmetry_equiv_pos_as_xyz
  1  'x, y, z'
loop_
 _atom_site_type_symbol
 _atom_site_label
 _atom_site_symmetry_multiplicity
 _atom_site_fract_x
 _atom_site_fract_y
 _atom_site_fract_z
 _atom_site_occupancy
 _atom_site_charge
  Cu  Cu1  1  0.260700  0.107100  0.369000  1.0  0.3604
  Cu  Cu2  1  0.260700  0.607100  0.869000  1.0  0.3604
  Cu  Cu3  1  0.760700  0.107100  0.869000  1.0  0.3604
  Cu  Cu4  1  0.760700  0.607100  0.369000  1.0  0.3604
  Cu  Cu5  1  0.260700  0.642900  0.381000  1.0  0.3603
  Cu  Cu6  1  0.260700  0.142900  0.881000  1.0  0.3603
  Cu  Cu7  1  0.760700  0.642900  0.881000  1.0  0.3603
  Cu  Cu8  1  0.760700  0.142900  0.381000  1.0  0.3603
  Cu  Cu9  1  0.510700  0.357100  0.631000  1.0  0.36
  Cu  Cu10  1  0.510700  0.857100  0.131000  1.0  0.36
  Cu  Cu11  1  0.010700  0.357100  0.131000  1.0  0.36
  Cu  Cu12  1  0.010700  0.857100  0.631000  1.0  0.36
  Cu  Cu13  1  0.510700  0.892900  0.619000  1.0  0.3607
  Cu  Cu14  1  0.510700  0.392900  0.119000  1.0  0.3607
  Cu  Cu15  1  0.010700  0.892900  0.119000  1.0  0.3607
  Cu  Cu16  1  0.010700  0.392900  0.619000  1.0  0.3607
  Cu  Cu17  1  0.489300  0.642900  0.369000  1.0  0.3595
  Cu  Cu18  1  0.489300  0.142900  0.869000  1.0  0.3595
  Cu  Cu19  1  0.989300  0.642900  0.869000  1.0  0.3595
  Cu  Cu20  1  0.989300  0.142900  0.369000  1.0  0.3595
  Cu  Cu21  1  0.489300  0.107100  0.381000  1.0  0.3587
  Cu  Cu22  1  0.489300  0.607100  0.881000  1.0  0.3587
  Cu  Cu23  1  0.989300  0.107100  0.881000  1.0  0.3587
  Cu  Cu24  1  0.989300  0.607100  0.381000  1.0  0.3587
  Cu  Cu25  1  0.739300  0.892900  0.631000  1.0  0.3589
  Cu  Cu26  1  0.739300  0.392900  0.131000  1.0  0.3589
  Cu  Cu27  1  0.239300  0.892900  0.131000  1.0  0.3589
  Cu  Cu28  1  0.239300  0.392900  0.631000  1.0  0.3589
  Cu  Cu29  1  0.739300  0.357100  0.619000  1.0  0.3592
  Cu  Cu30  1  0.739300  0.857100  0.119000  1.0  0.3592
  Cu  Cu31  1  0.239300  0.357100  0.119000  1.0  0.3592
  Cu  Cu32  1  0.239300  0.857100  0.619000  1.0  0.3592
  H  H33  1  0.232500  0.011200  0.309300  1.0  0.0657
  H  H34  1  0.244000  0.913500  0.309400  1.0  0.0888
  H  H35  1  0.312900  0.921400  0.437500  1.0  0.0907
  H  H36  1  0.308800  0.019300  0.432500  1.0  0.0602
  H  H37  1  0.299400  0.522300  0.389200  1.0  0.0459
  H  H38  1  0.353800  0.460100  0.438600  1.0  0.0966
  H  H39  1  0.370800  0.590900  0.526500  1.0  0.0926
  H  H40  1  0.326200  0.650200  0.470600  1.0  0.0543
  H  H41  1  0.501200  0.365900  0.531800  1.0  0.0525
  H  H42  1  0.446400  0.422100  0.478200  1.0  0.0937
  H  H43  1  0.365800  0.520000  0.578400  1.0  0.0902
  H  H44  1  0.415100  0.455000  0.628700  1.0  0.0533
  H  H45  1  0.232500  0.511200  0.809300  1.0  0.0657
  H  H46  1  0.244000  0.413500  0.809400  1.0  0.0888
  H  H47  1  0.312900  0.421400  0.937500  1.0  0.0907
  H  H48  1  0.308800  0.519300  0.932500  1.0  0.0602
  H  H49  1  0.299400  0.022300  0.889200  1.0  0.0459
  H  H50  1  0.353800  0.960100  0.938600  1.0  0.0966
  H  H51  1  0.370800  0.090900  0.026500  1.0  0.0926
  H  H52  1  0.326200  0.150200  0.970600  1.0  0.0543
  H  H53  1  0.501200  0.865900  0.031800  1.0  0.0525
  H  H54  1  0.446400  0.922100  0.978200  1.0  0.0937
  H  H55  1  0.365800  0.020000  0.078400  1.0  0.0902
  H  H56  1  0.415100  0.955000  0.128700  1.0  0.0533
  H  H57  1  0.732500  0.011200  0.809300  1.0  0.0657
  H  H58  1  0.744000  0.913500  0.809400  1.0  0.0888
  H  H59  1  0.812900  0.921400  0.937500  1.0  0.0907
  H  H60  1  0.808800  0.019300  0.932500  1.0  0.0602
  H  H61  1  0.799400  0.522300  0.889200  1.0  0.0459
  H  H62  1  0.853800  0.460100  0.938600  1.0  0.0966
  H  H63  1  0.870800  0.590900  0.026500  1.0  0.0926
  H  H64  1  0.826200  0.650200  0.970600  1.0  0.0543
  H  H65  1  0.001200  0.365900  0.031800  1.0  0.0525
  H  H66  1  0.946400  0.422100  0.978200  1.0  0.0937
  H  H67  1  0.865800  0.520000  0.078400  1.0  0.0902
  H  H68  1  0.915100  0.455000  0.128700  1.0  0.0533
  H  H69  1  0.732500  0.511200  0.309300  1.0  0.0657
  H  H70  1  0.744000  0.413500  0.309400  1.0  0.0888
  H  H71  1  0.812900  0.421400  0.437500  1.0  0.0907
  H  H72  1  0.808800  0.519300  0.432500  1.0  0.0602
  H  H73  1  0.799400  0.022300  0.389200  1.0  0.0459
  H  H74  1  0.853800  0.960100  0.438600  1.0  0.0966
  H  H75  1  0.870800  0.090900  0.526500  1.0  0.0926
  H  H76  1  0.826200  0.150200  0.470600  1.0  0.0543
  H  H77  1  0.001200  0.865900  0.531800  1.0  0.0525
  H  H78  1  0.946400  0.922100  0.478200  1.0  0.0937
  H  H79  1  0.865800  0.020000  0.578400  1.0  0.0902
  H  H80  1  0.915100  0.955000  0.628700  1.0  0.0533
  H  H81  1  0.232500  0.738800  0.440700  1.0  0.0651
  H  H82  1  0.244000  0.836500  0.440600  1.0  0.0892
  H  H83  1  0.312900  0.828600  0.312500  1.0  0.0909
  H  H84  1  0.308800  0.730700  0.317500  1.0  0.0599
  H  H85  1  0.299400  0.227700  0.360800  1.0  0.0458
  H  H86  1  0.353800  0.289900  0.311400  1.0  0.0974
  H  H87  1  0.370800  0.159100  0.223500  1.0  0.0916
  H  H88  1  0.326200  0.099800  0.279400  1.0  0.054
  H  H89  1  0.501200  0.384100  0.218200  1.0  0.0522
  H  H90  1  0.446400  0.327900  0.271800  1.0  0.0944
  H  H91  1  0.365800  0.230000  0.171600  1.0  0.0897
  H  H92  1  0.415100  0.295000  0.121300  1.0  0.0542
  H  H93  1  0.232500  0.238800  0.940700  1.0  0.0651
  H  H94  1  0.244000  0.336500  0.940600  1.0  0.0892
  H  H95  1  0.312900  0.328600  0.812500  1.0  0.0909
  H  H96  1  0.308800  0.230700  0.817500  1.0  0.0599
  H  H97  1  0.299400  0.727700  0.860800  1.0  0.0458
  H  H98  1  0.353800  0.789900  0.811400  1.0  0.0974
  H  H99  1  0.370800  0.659100  0.723500  1.0  0.0916
  H  H100  1  0.326200  0.599800  0.779400  1.0  0.054
  H  H101  1  0.501200  0.884100  0.718200  1.0  0.0522
  H  H102  1  0.446400  0.827900  0.771800  1.0  0.0944
  H  H103  1  0.365800  0.730000  0.671600  1.0  0.0897
  H  H104  1  0.415100  0.795000  0.621300  1.0  0.0542
  H  H105  1  0.732500  0.738800  0.940700  1.0  0.0651
  H  H106  1  0.744000  0.836500  0.940600  1.0  0.0892
  H  H107  1  0.812900  0.828600  0.812500  1.0  0.0909
  H  H108  1  0.808800  0.730700  0.817500  1.0  0.0599
  H  H109  1  0.799400  0.227700  0.860800  1.0  0.0458
  H  H110  1  0.853800  0.289900  0.811400  1.0  0.0974
  H  H111  1  0.870800  0.159100  0.723500  1.0  0.0916
  H  H112  1  0.826200  0.099800  0.779400  1.0  0.054
  H  H113  1  0.001200  0.384100  0.718200  1.0  0.0522
  H  H114  1  0.946400  0.327900  0.771800  1.0  0.0944
  H  H115  1  0.865800  0.230000  0.671600  1.0  0.0897
  H  H116  1  0.915100  0.295000  0.621300  1.0  0.0542
  H  H117  1  0.732500  0.238800  0.440700  1.0  0.0651
  H  H118  1  0.744000  0.336500  0.440600  1.0  0.0892
  H  H119  1  0.812900  0.328600  0.312500  1.0  0.0909
  H  H120  1  0.808800  0.230700  0.317500  1.0  0.0599
  H  H121  1  0.799400  0.727700  0.360800  1.0  0.0458
  H  H122  1  0.853800  0.789900  0.311400  1.0  0.0974
  H  H123  1  0.870800  0.659100  0.223500  1.0  0.0916
  H  H124  1  0.826200  0.599800  0.279400  1.0  0.054
  H  H125  1  0.001200  0.884100  0.218200  1.0  0.0522
  H  H126  1  0.946400  0.827900  0.271800  1.0  0.0944
  H  H127  1  0.865800  0.730000  0.171600  1.0  0.0897
  H  H128  1  0.915100  0.795000  0.121300  1.0  0.0542
  H  H129  1  0.482500  0.261200  0.690700  1.0  0.0647
  H  H130  1  0.494000  0.163500  0.690600  1.0  0.0892
  H  H131  1  0.562900  0.171400  0.562500  1.0  0.0911
  H  H132  1  0.558800  0.269300  0.567500  1.0  0.0599
  H  H133  1  0.549400  0.772300  0.610800  1.0  0.0462
  H  H134  1  0.603800  0.710100  0.561400  1.0  0.0967
  H  H135  1  0.620800  0.840900  0.473500  1.0  0.0927
  H  H136  1  0.576200  0.900200  0.529400  1.0  0.0545
  H  H137  1  0.751200  0.615900  0.468200  1.0  0.0524
  H  H138  1  0.696400  0.672100  0.521800  1.0  0.0942
  H  H139  1  0.615800  0.770000  0.421600  1.0  0.0904
  H  H140  1  0.665100  0.705000  0.371300  1.0  0.0541
  H  H141  1  0.482500  0.761200  0.190700  1.0  0.0647
  H  H142  1  0.494000  0.663500  0.190600  1.0  0.0892
  H  H143  1  0.562900  0.671400  0.062500  1.0  0.0911
  H  H144  1  0.558800  0.769300  0.067500  1.0  0.0599
  H  H145  1  0.549400  0.272300  0.110800  1.0  0.0462
  H  H146  1  0.603800  0.210100  0.061400  1.0  0.0967
  H  H147  1  0.620800  0.340900  0.973500  1.0  0.0927
  H  H148  1  0.576200  0.400200  0.029400  1.0  0.0545
  H  H149  1  0.751200  0.115900  0.968200  1.0  0.0524
  H  H150  1  0.696400  0.172100  0.021800  1.0  0.0942
  H  H151  1  0.615800  0.270000  0.921600  1.0  0.0904
  H  H152  1  0.665100  0.205000  0.871300  1.0  0.0541
  H  H153  1  0.982500  0.261200  0.190700  1.0  0.0647
  H  H154  1  0.994000  0.163500  0.190600  1.0  0.0892
  H  H155  1  0.062900  0.171400  0.062500  1.0  0.0911
  H  H156  1  0.058800  0.269300  0.067500  1.0  0.0599
  H  H157  1  0.049400  0.772300  0.110800  1.0  0.0462
  H  H158  1  0.103800  0.710100  0.061400  1.0  0.0967
  H  H159  1  0.120800  0.840900  0.973500  1.0  0.0927
  H  H160  1  0.076200  0.900200  0.029400  1.0  0.0545
  H  H161  1  0.251200  0.615900  0.968200  1.0  0.0524
  H  H162  1  0.196400  0.672100  0.021800  1.0  0.0942
  H  H163  1  0.115800  0.770000  0.921600  1.0  0.0904
  H  H164  1  0.165100  0.705000  0.871300  1.0  0.0541
  H  H165  1  0.982500  0.761200  0.690700  1.0  0.0647
  H  H166  1  0.994000  0.663500  0.690600  1.0  0.0892
  H  H167  1  0.062900  0.671400  0.562500  1.0  0.0911
  H  H168  1  0.058800  0.769300  0.567500  1.0  0.0599
  H  H169  1  0.049400  0.272300  0.610800  1.0  0.0462
  H  H170  1  0.103800  0.210100  0.561400  1.0  0.0967
  H  H171  1  0.120800  0.340900  0.473500  1.0  0.0927
  H  H172  1  0.076200  0.400200  0.529400  1.0  0.0545
  H  H173  1  0.251200  0.115900  0.468200  1.0  0.0524
  H  H174  1  0.196400  0.172100  0.521800  1.0  0.0942
  H  H175  1  0.115800  0.270000  0.421600  1.0  0.0904
  H  H176  1  0.165100  0.205000  0.371300  1.0  0.0541
  H  H177  1  0.482500  0.988800  0.559300  1.0  0.066
  H  H178  1  0.494000  0.086500  0.559400  1.0  0.0888
  H  H179  1  0.562900  0.078600  0.687500  1.0  0.0907
  H  H180  1  0.558800  0.980700  0.682500  1.0  0.06
  H  H181  1  0.549400  0.477700  0.639200  1.0  0.0459
  H  H182  1  0.603800  0.539900  0.688600  1.0  0.0973
  H  H183  1  0.620800  0.409100  0.776500  1.0  0.0921
  H  H184  1  0.576200  0.349800  0.720600  1.0  0.0544
  H  H185  1  0.751200  0.634100  0.781800  1.0  0.0526
  H  H186  1  0.696400  0.577900  0.728200  1.0  0.0941
  H  H187  1  0.615800  0.480000  0.828400  1.0  0.09
  H  H188  1  0.665100  0.545000  0.878700  1.0  0.0537
  H  H189  1  0.482500  0.488800  0.059300  1.0  0.066
  H  H190  1  0.494000  0.586500  0.059400  1.0  0.0888
  H  H191  1  0.562900  0.578600  0.187500  1.0  0.0907
  H  H192  1  0.558800  0.480700  0.182500  1.0  0.06
  H  H193  1  0.549400  0.977700  0.139200  1.0  0.0459
  H  H194  1  0.603800  0.039900  0.188600  1.0  0.0973
  H  H195  1  0.620800  0.909100  0.276500  1.0  0.0921
  H  H196  1  0.576200  0.849800  0.220600  1.0  0.0544
  H  H197  1  0.751200  0.134100  0.281800  1.0  0.0526
  H  H198  1  0.696400  0.077900  0.228200  1.0  0.0941
  H  H199  1  0.615800  0.980000  0.328400  1.0  0.09
  H  H200  1  0.665100  0.045000  0.378700  1.0  0.0537
  H  H201  1  0.982500  0.988800  0.059300  1.0  0.066
  H  H202  1  0.994000  0.086500  0.059400  1.0  0.0888
  H  H203  1  0.062900  0.078600  0.187500  1.0  0.0907
  H  H204  1  0.058800  0.980700  0.182500  1.0  0.06
  H  H205  1  0.049400  0.477700  0.139200  1.0  0.0459
  H  H206  1  0.103800  0.539900  0.188600  1.0  0.0973
  H  H207  1  0.120800  0.409100  0.276500  1.0  0.0921
  H  H208  1  0.076200  0.349800  0.220600  1.0  0.0544
  H  H209  1  0.251200  0.634100  0.281800  1.0  0.0526
  H  H210  1  0.196400  0.577900  0.228200  1.0  0.0941
  H  H211  1  0.115800  0.480000  0.328400  1.0  0.09
  H  H212  1  0.165100  0.545000  0.378700  1.0  0.0537
  H  H213  1  0.982500  0.488800  0.559300  1.0  0.066
  H  H214  1  0.994000  0.586500  0.559400  1.0  0.0888
  H  H215  1  0.062900  0.578600  0.687500  1.0  0.0907
  H  H216  1  0.058800  0.480700  0.682500  1.0  0.06
  H  H217  1  0.049400  0.977700  0.639200  1.0  0.0459
  H  H218  1  0.103800  0.039900  0.688600  1.0  0.0973
  H  H219  1  0.120800  0.909100  0.776500  1.0  0.0921
  H  H220  1  0.076200  0.849800  0.720600  1.0  0.0544
  H  H221  1  0.251200  0.134100  0.781800  1.0  0.0526
  H  H222  1  0.196400  0.077900  0.728200  1.0  0.0941
  H  H223  1  0.115800  0.980000  0.828400  1.0  0.09
  H  H224  1  0.165100  0.045000  0.878700  1.0  0.0537
  H  H225  1  0.517500  0.738800  0.309300  1.0  0.066
  H  H226  1  0.506000  0.836500  0.309400  1.0  0.0882
  H  H227  1  0.437100  0.828600  0.437500  1.0  0.0903
  H  H228  1  0.441200  0.730700  0.432500  1.0  0.0596
  H  H229  1  0.450600  0.227700  0.389200  1.0  0.0457
  H  H230  1  0.396200  0.289900  0.438600  1.0  0.097
  H  H231  1  0.379200  0.159100  0.526500  1.0  0.0916
  H  H232  1  0.423800  0.099800  0.470600  1.0  0.0546
  H  H233  1  0.248800  0.384100  0.531800  1.0  0.0525
  H  H234  1  0.303600  0.327900  0.478200  1.0  0.0938
  H  H235  1  0.384200  0.230000  0.578400  1.0  0.0904
  H  H236  1  0.334900  0.295000  0.628700  1.0  0.0537
  H  H237  1  0.517500  0.238800  0.809300  1.0  0.066
  H  H238  1  0.506000  0.336500  0.809400  1.0  0.0882
  H  H239  1  0.437100  0.328600  0.937500  1.0  0.0903
  H  H240  1  0.441200  0.230700  0.932500  1.0  0.0596
  H  H241  1  0.450600  0.727700  0.889200  1.0  0.0457
  H  H242  1  0.396200  0.789900  0.938600  1.0  0.097
  H  H243  1  0.379200  0.659100  0.026500  1.0  0.0916
  H  H244  1  0.423800  0.599800  0.970600  1.0  0.0546
  H  H245  1  0.248800  0.884100  0.031800  1.0  0.0525
  H  H246  1  0.303600  0.827900  0.978200  1.0  0.0938
  H  H247  1  0.384200  0.730000  0.078400  1.0  0.0904
  H  H248  1  0.334900  0.795000  0.128700  1.0  0.0537
  H  H249  1  0.017500  0.738800  0.809300  1.0  0.066
  H  H250  1  0.006000  0.836500  0.809400  1.0  0.0882
  H  H251  1  0.937100  0.828600  0.937500  1.0  0.0903
  H  H252  1  0.941200  0.730700  0.932500  1.0  0.0596
  H  H253  1  0.950600  0.227700  0.889200  1.0  0.0457
  H  H254  1  0.896200  0.289900  0.938600  1.0  0.097
  H  H255  1  0.879200  0.159100  0.026500  1.0  0.0916
  H  H256  1  0.923800  0.099800  0.970600  1.0  0.0546
  H  H257  1  0.748800  0.384100  0.031800  1.0  0.0525
  H  H258  1  0.803600  0.327900  0.978200  1.0  0.0938
  H  H259  1  0.884200  0.230000  0.078400  1.0  0.0904
  H  H260  1  0.834900  0.295000  0.128700  1.0  0.0537
  H  H261  1  0.017500  0.238800  0.309300  1.0  0.066
  H  H262  1  0.006000  0.336500  0.309400  1.0  0.0882
  H  H263  1  0.937100  0.328600  0.437500  1.0  0.0903
  H  H264  1  0.941200  0.230700  0.432500  1.0  0.0596
  H  H265  1  0.950600  0.727700  0.389200  1.0  0.0457
  H  H266  1  0.896200  0.789900  0.438600  1.0  0.097
  H  H267  1  0.879200  0.659100  0.526500  1.0  0.0916
  H  H268  1  0.923800  0.599800  0.470600  1.0  0.0546
  H  H269  1  0.748800  0.884100  0.531800  1.0  0.0525
  H  H270  1  0.803600  0.827900  0.478200  1.0  0.0938
  H  H271  1  0.884200  0.730000  0.578400  1.0  0.0904
  H  H272  1  0.834900  0.795000  0.628700  1.0  0.0537
  H  H273  1  0.517500  0.011200  0.440700  1.0  0.0647
  H  H274  1  0.506000  0.913500  0.440600  1.0  0.0894
  H  H275  1  0.437100  0.921400  0.312500  1.0  0.091
  H  H276  1  0.441200  0.019300  0.317500  1.0  0.0596
  H  H277  1  0.450600  0.522300  0.360800  1.0  0.0461
  H  H278  1  0.396200  0.460100  0.311400  1.0  0.0965
  H  H279  1  0.379200  0.590900  0.223500  1.0  0.0927
  H  H280  1  0.423800  0.650200  0.279400  1.0  0.0545
  H  H281  1  0.248800  0.365900  0.218200  1.0  0.052
  H  H282  1  0.303600  0.422100  0.271800  1.0  0.094
  H  H283  1  0.384200  0.520000  0.171600  1.0  0.0904
  H  H284  1  0.334900  0.455000  0.121300  1.0  0.0543
  H  H285  1  0.517500  0.511200  0.940700  1.0  0.0647
  H  H286  1  0.506000  0.413500  0.940600  1.0  0.0894
  H  H287  1  0.437100  0.421400  0.812500  1.0  0.091
  H  H288  1  0.441200  0.519300  0.817500  1.0  0.0596
  H  H289  1  0.450600  0.022300  0.860800  1.0  0.0461
  H  H290  1  0.396200  0.960100  0.811400  1.0  0.0965
  H  H291  1  0.379200  0.090900  0.723500  1.0  0.0927
  H  H292  1  0.423800  0.150200  0.779400  1.0  0.0545
  H  H293  1  0.248800  0.865900  0.718200  1.0  0.052
  H  H294  1  0.303600  0.922100  0.771800  1.0  0.094
  H  H295  1  0.384200  0.020000  0.671600  1.0  0.0904
  H  H296  1  0.334900  0.955000  0.621300  1.0  0.0543
  H  H297  1  0.017500  0.011200  0.940700  1.0  0.0647
  H  H298  1  0.006000  0.913500  0.940600  1.0  0.0894
  H  H299  1  0.937100  0.921400  0.812500  1.0  0.091
  H  H300  1  0.941200  0.019300  0.817500  1.0  0.0596
  H  H301  1  0.950600  0.522300  0.860800  1.0  0.0461
  H  H302  1  0.896200  0.460100  0.811400  1.0  0.0965
  H  H303  1  0.879200  0.590900  0.723500  1.0  0.0927
  H  H304  1  0.923800  0.650200  0.779400  1.0  0.0545
  H  H305  1  0.748800  0.365900  0.718200  1.0  0.052
  H  H306  1  0.803600  0.422100  0.771800  1.0  0.094
  H  H307  1  0.884200  0.520000  0.671600  1.0  0.0904
  H  H308  1  0.834900  0.455000  0.621300  1.0  0.0543
  H  H309  1  0.017500  0.511200  0.440700  1.0  0.0647
  H  H310  1  0.006000  0.413500  0.440600  1.0  0.0894
  H  H311  1  0.937100  0.421400  0.312500  1.0  0.091
  H  H312  1  0.941200  0.519300  0.317500  1.0  0.0596
  H  H313  1  0.950600  0.022300  0.360800  1.0  0.0461
  H  H314  1  0.896200  0.960100  0.311400  1.0  0.0965
  H  H315  1  0.879200  0.090900  0.223500  1.0  0.0927
  H  H316  1  0.923800  0.150200  0.279400  1.0  0.0545
  H  H317  1  0.748800  0.865900  0.218200  1.0  0.052
  H  H318  1  0.803600  0.922100  0.271800  1.0  0.094
  H  H319  1  0.884200  0.020000  0.171600  1.0  0.0904
  H  H320  1  0.834900  0.955000  0.121300  1.0  0.0543
  H  H321  1  0.767500  0.988800  0.690700  1.0  0.0649
  H  H322  1  0.756000  0.086500  0.690600  1.0  0.0888
  H  H323  1  0.687100  0.078600  0.562500  1.0  0.0907
  H  H324  1  0.691200  0.980700  0.567500  1.0  0.0594
  H  H325  1  0.700600  0.477700  0.610800  1.0  0.0457
  H  H326  1  0.646200  0.539900  0.561400  1.0  0.097
  H  H327  1  0.629200  0.409100  0.473500  1.0  0.0915
  H  H328  1  0.673800  0.349800  0.529400  1.0  0.0543
  H  H329  1  0.498800  0.634100  0.468200  1.0  0.0522
  H  H330  1  0.553600  0.577900  0.521800  1.0  0.094
  H  H331  1  0.634200  0.480000  0.421600  1.0  0.09
  H  H332  1  0.584900  0.545000  0.371300  1.0  0.0544
  H  H333  1  0.767500  0.488800  0.190700  1.0  0.0649
  H  H334  1  0.756000  0.586500  0.190600  1.0  0.0888
  H  H335  1  0.687100  0.578600  0.062500  1.0  0.0907
  H  H336  1  0.691200  0.480700  0.067500  1.0  0.0594
  H  H337  1  0.700600  0.977700  0.110800  1.0  0.0457
  H  H338  1  0.646200  0.039900  0.061400  1.0  0.097
  H  H339  1  0.629200  0.909100  0.973500  1.0  0.0915
  H  H340  1  0.673800  0.849800  0.029400  1.0  0.0543
  H  H341  1  0.498800  0.134100  0.968200  1.0  0.0522
  H  H342  1  0.553600  0.077900  0.021800  1.0  0.094
  H  H343  1  0.634200  0.980000  0.921600  1.0  0.09
  H  H344  1  0.584900  0.045000  0.871300  1.0  0.0544
  H  H345  1  0.267500  0.988800  0.190700  1.0  0.0649
  H  H346  1  0.256000  0.086500  0.190600  1.0  0.0888
  H  H347  1  0.187100  0.078600  0.062500  1.0  0.0907
  H  H348  1  0.191200  0.980700  0.067500  1.0  0.0594
  H  H349  1  0.200600  0.477700  0.110800  1.0  0.0457
  H  H350  1  0.146200  0.539900  0.061400  1.0  0.097
  H  H351  1  0.129200  0.409100  0.973500  1.0  0.0915
  H  H352  1  0.173800  0.349800  0.029400  1.0  0.0543
  H  H353  1  0.998800  0.634100  0.968200  1.0  0.0522
  H  H354  1  0.053600  0.577900  0.021800  1.0  0.094
  H  H355  1  0.134200  0.480000  0.921600  1.0  0.09
  H  H356  1  0.084900  0.545000  0.871300  1.0  0.0544
  H  H357  1  0.267500  0.488800  0.690700  1.0  0.0649
  H  H358  1  0.256000  0.586500  0.690600  1.0  0.0888
  H  H359  1  0.187100  0.578600  0.562500  1.0  0.0907
  H  H360  1  0.191200  0.480700  0.567500  1.0  0.0594
  H  H361  1  0.200600  0.977700  0.610800  1.0  0.0457
  H  H362  1  0.146200  0.039900  0.561400  1.0  0.097
  H  H363  1  0.129200  0.909100  0.473500  1.0  0.0915
  H  H364  1  0.173800  0.849800  0.529400  1.0  0.0543
  H  H365  1  0.998800  0.134100  0.468200  1.0  0.0522
  H  H366  1  0.053600  0.077900  0.521800  1.0  0.094
  H  H367  1  0.134200  0.980000  0.421600  1.0  0.09
  H  H368  1  0.084900  0.045000  0.371300  1.0  0.0544
  H  H369  1  0.767500  0.261200  0.559300  1.0  0.0658
  H  H370  1  0.756000  0.163500  0.559400  1.0  0.089
  H  H371  1  0.687100  0.171400  0.687500  1.0  0.0905
  H  H372  1  0.691200  0.269300  0.682500  1.0  0.0598
  H  H373  1  0.700600  0.772300  0.639200  1.0  0.0453
  H  H374  1  0.646200  0.710100  0.688600  1.0  0.0967
  H  H375  1  0.629200  0.840900  0.776500  1.0  0.0922
  H  H376  1  0.673800  0.900200  0.720600  1.0  0.0542
  H  H377  1  0.498800  0.615900  0.781800  1.0  0.0519
  H  H378  1  0.553600  0.672100  0.728200  1.0  0.0934
  H  H379  1  0.634200  0.770000  0.828400  1.0  0.0903
  H  H380  1  0.584900  0.705000  0.878700  1.0  0.0536
  H  H381  1  0.767500  0.761200  0.059300  1.0  0.0658
  H  H382  1  0.756000  0.663500  0.059400  1.0  0.089
  H  H383  1  0.687100  0.671400  0.187500  1.0  0.0905
  H  H384  1  0.691200  0.769300  0.182500  1.0  0.0598
  H  H385  1  0.700600  0.272300  0.139200  1.0  0.0453
  H  H386  1  0.646200  0.210100  0.188600  1.0  0.0967
  H  H387  1  0.629200  0.340900  0.276500  1.0  0.0922
  H  H388  1  0.673800  0.400200  0.220600  1.0  0.0542
  H  H389  1  0.498800  0.115900  0.281800  1.0  0.0519
  H  H390  1  0.553600  0.172100  0.228200  1.0  0.0934
  H  H391  1  0.634200  0.270000  0.328400  1.0  0.0903
  H  H392  1  0.584900  0.205000  0.378700  1.0  0.0536
  H  H393  1  0.267500  0.261200  0.059300  1.0  0.0658
  H  H394  1  0.256000  0.163500  0.059400  1.0  0.089
  H  H395  1  0.187100  0.171400  0.187500  1.0  0.0905
  H  H396  1  0.191200  0.269300  0.182500  1.0  0.0598
  H  H397  1  0.200600  0.772300  0.139200  1.0  0.0453
  H  H398  1  0.146200  0.710100  0.188600  1.0  0.0967
  H  H399  1  0.129200  0.840900  0.276500  1.0  0.0922
  H  H400  1  0.173800  0.900200  0.220600  1.0  0.0542
  H  H401  1  0.998800  0.615900  0.281800  1.0  0.0519
  H  H402  1  0.053600  0.672100  0.228200  1.0  0.0934
  H  H403  1  0.134200  0.770000  0.328400  1.0  0.0903
  H  H404  1  0.084900  0.705000  0.378700  1.0  0.0536
  H  H405  1  0.267500  0.761200  0.559300  1.0  0.0658
  H  H406  1  0.256000  0.663500  0.559400  1.0  0.089
  H  H407  1  0.187100  0.671400  0.687500  1.0  0.0905
  H  H408  1  0.191200  0.769300  0.682500  1.0  0.0598
  H  H409  1  0.200600  0.272300  0.639200  1.0  0.0453
  H  H410  1  0.146200  0.210100  0.688600  1.0  0.0967
  H  H411  1  0.129200  0.340900  0.776500  1.0  0.0922
  H  H412  1  0.173800  0.400200  0.720600  1.0  0.0542
  H  H413  1  0.998800  0.115900  0.781800  1.0  0.0519
  H  H414  1  0.053600  0.172100  0.728200  1.0  0.0934
  H  H415  1  0.134200  0.270000  0.828400  1.0  0.0903
  H  H416  1  0.084900  0.205000  0.878700  1.0  0.0536
  C  C417  1  0.252000  0.993200  0.335500  1.0  0.1178
  C  C418  1  0.253100  0.935100  0.336100  1.0  -0.2244
  C  C419  1  0.274500  0.906500  0.374100  1.0  0.0639
  C  C420  1  0.295400  0.938800  0.410500  1.0  -0.2105
  C  C421  1  0.293800  0.997100  0.407200  1.0  0.1316
  C  C422  1  0.316100  0.536100  0.417700  1.0  0.1439
  C  C423  1  0.346000  0.498800  0.447600  1.0  -0.1988
  C  C424  1  0.368300  0.518000  0.488900  1.0  0.0815
  C  C425  1  0.358400  0.575500  0.497800  1.0  -0.1994
  C  C426  1  0.328500  0.609900  0.465600  1.0  0.1344
  C  C427  1  0.469500  0.396400  0.540900  1.0  0.1493
  C  C428  1  0.441200  0.431800  0.509200  1.0  -0.1891
  C  C429  1  0.400900  0.479500  0.521700  1.0  0.0687
  C  C430  1  0.392700  0.487700  0.567600  1.0  -0.1976
  C  C431  1  0.422800  0.449500  0.597200  1.0  0.1268
  C  C432  1  0.252000  0.493200  0.835500  1.0  0.1178
  C  C433  1  0.253100  0.435100  0.836100  1.0  -0.2244
  C  C434  1  0.274500  0.406500  0.874100  1.0  0.0639
  C  C435  1  0.295400  0.438800  0.910500  1.0  -0.2105
  C  C436  1  0.293800  0.497100  0.907200  1.0  0.1316
  C  C437  1  0.316100  0.036100  0.917700  1.0  0.1439
  C  C438  1  0.346000  0.998800  0.947600  1.0  -0.1988
  C  C439  1  0.368300  0.018000  0.988900  1.0  0.0815
  C  C440  1  0.358400  0.075500  0.997800  1.0  -0.1994
  C  C441  1  0.328500  0.109900  0.965600  1.0  0.1344
  C  C442  1  0.469500  0.896400  0.040900  1.0  0.1493
  C  C443  1  0.441200  0.931800  0.009200  1.0  -0.1891
  C  C444  1  0.400900  0.979500  0.021700  1.0  0.0687
  C  C445  1  0.392700  0.987700  0.067600  1.0  -0.1976
  C  C446  1  0.422800  0.949500  0.097200  1.0  0.1268
  C  C447  1  0.752000  0.993200  0.835500  1.0  0.1178
  C  C448  1  0.753100  0.935100  0.836100  1.0  -0.2244
  C  C449  1  0.774500  0.906500  0.874100  1.0  0.0639
  C  C450  1  0.795400  0.938800  0.910500  1.0  -0.2105
  C  C451  1  0.793800  0.997100  0.907200  1.0  0.1316
  C  C452  1  0.816100  0.536100  0.917700  1.0  0.1439
  C  C453  1  0.846000  0.498800  0.947600  1.0  -0.1988
  C  C454  1  0.868300  0.518000  0.988900  1.0  0.0815
  C  C455  1  0.858400  0.575500  0.997800  1.0  -0.1994
  C  C456  1  0.828500  0.609900  0.965600  1.0  0.1344
  C  C457  1  0.969500  0.396400  0.040900  1.0  0.1493
  C  C458  1  0.941200  0.431800  0.009200  1.0  -0.1891
  C  C459  1  0.900900  0.479500  0.021700  1.0  0.0687
  C  C460  1  0.892700  0.487700  0.067600  1.0  -0.1976
  C  C461  1  0.922800  0.449500  0.097200  1.0  0.1268
  C  C462  1  0.752000  0.493200  0.335500  1.0  0.1178
  C  C463  1  0.753100  0.435100  0.336100  1.0  -0.2244
  C  C464  1  0.774500  0.406500  0.374100  1.0  0.0639
  C  C465  1  0.795400  0.438800  0.410500  1.0  -0.2105
  C  C466  1  0.793800  0.497100  0.407200  1.0  0.1316
  C  C467  1  0.816100  0.036100  0.417700  1.0  0.1439
  C  C468  1  0.846000  0.998800  0.447600  1.0  -0.1988
  C  C469  1  0.868300  0.018000  0.488900  1.0  0.0815
  C  C470  1  0.858400  0.075500  0.497800  1.0  -0.1994
  C  C471  1  0.828500  0.109900  0.465600  1.0  0.1344
  C  C472  1  0.969500  0.896400  0.540900  1.0  0.1493
  C  C473  1  0.941200  0.931800  0.509200  1.0  -0.1891
  C  C474  1  0.900900  0.979500  0.521700  1.0  0.0687
  C  C475  1  0.892700  0.987700  0.567600  1.0  -0.1976
  C  C476  1  0.922800  0.949500  0.597200  1.0  0.1268
  C  C477  1  0.252000  0.756800  0.414500  1.0  0.1174
  C  C478  1  0.253100  0.814900  0.413900  1.0  -0.2253
  C  C479  1  0.274500  0.843500  0.375900  1.0  0.0638
  C  C480  1  0.295400  0.811200  0.339500  1.0  -0.2098
  C  C481  1  0.293800  0.752900  0.342800  1.0  0.1315
  C  C482  1  0.316100  0.213900  0.332300  1.0  0.1452
  C  C483  1  0.346000  0.251200  0.302400  1.0  -0.1979
  C  C484  1  0.368300  0.232000  0.261100  1.0  0.0812
  C  C485  1  0.358400  0.174500  0.252200  1.0  -0.2001
  C  C486  1  0.328500  0.140100  0.284400  1.0  0.1339
  C  C487  1  0.469500  0.353600  0.209100  1.0  0.15
  C  C488  1  0.441200  0.318200  0.240800  1.0  -0.1878
  C  C489  1  0.400900  0.270500  0.228300  1.0  0.0683
  C  C490  1  0.392700  0.262300  0.182400  1.0  -0.1969
  C  C491  1  0.422800  0.300500  0.152800  1.0  0.1273
  C  C492  1  0.252000  0.256800  0.914500  1.0  0.1174
  C  C493  1  0.253100  0.314900  0.913900  1.0  -0.2253
  C  C494  1  0.274500  0.343500  0.875900  1.0  0.0638
  C  C495  1  0.295400  0.311200  0.839500  1.0  -0.2098
  C  C496  1  0.293800  0.252900  0.842800  1.0  0.1315
  C  C497  1  0.316100  0.713900  0.832300  1.0  0.1452
  C  C498  1  0.346000  0.751200  0.802400  1.0  -0.1979
  C  C499  1  0.368300  0.732000  0.761100  1.0  0.0812
  C  C500  1  0.358400  0.674500  0.752200  1.0  -0.2001
  C  C501  1  0.328500  0.640100  0.784400  1.0  0.1339
  C  C502  1  0.469500  0.853600  0.709100  1.0  0.15
  C  C503  1  0.441200  0.818200  0.740800  1.0  -0.1878
  C  C504  1  0.400900  0.770500  0.728300  1.0  0.0683
  C  C505  1  0.392700  0.762300  0.682400  1.0  -0.1969
  C  C506  1  0.422800  0.800500  0.652800  1.0  0.1273
  C  C507  1  0.752000  0.756800  0.914500  1.0  0.1174
  C  C508  1  0.753100  0.814900  0.913900  1.0  -0.2253
  C  C509  1  0.774500  0.843500  0.875900  1.0  0.0638
  C  C510  1  0.795400  0.811200  0.839500  1.0  -0.2098
  C  C511  1  0.793800  0.752900  0.842800  1.0  0.1315
  C  C512  1  0.816100  0.213900  0.832300  1.0  0.1452
  C  C513  1  0.846000  0.251200  0.802400  1.0  -0.1979
  C  C514  1  0.868300  0.232000  0.761100  1.0  0.0812
  C  C515  1  0.858400  0.174500  0.752200  1.0  -0.2001
  C  C516  1  0.828500  0.140100  0.784400  1.0  0.1339
  C  C517  1  0.969500  0.353600  0.709100  1.0  0.15
  C  C518  1  0.941200  0.318200  0.740800  1.0  -0.1878
  C  C519  1  0.900900  0.270500  0.728300  1.0  0.0683
  C  C520  1  0.892700  0.262300  0.682400  1.0  -0.1969
  C  C521  1  0.922800  0.300500  0.652800  1.0  0.1273
  C  C522  1  0.752000  0.256800  0.414500  1.0  0.1174
  C  C523  1  0.753100  0.314900  0.413900  1.0  -0.2253
  C  C524  1  0.774500  0.343500  0.375900  1.0  0.0638
  C  C525  1  0.795400  0.311200  0.339500  1.0  -0.2098
  C  C526  1  0.793800  0.252900  0.342800  1.0  0.1315
  C  C527  1  0.816100  0.713900  0.332300  1.0  0.1452
  C  C528  1  0.846000  0.751200  0.302400  1.0  -0.1979
  C  C529  1  0.868300  0.732000  0.261100  1.0  0.0812
  C  C530  1  0.858400  0.674500  0.252200  1.0  -0.2001
  C  C531  1  0.828500  0.640100  0.284400  1.0  0.1339
  C  C532  1  0.969500  0.853600  0.209100  1.0  0.15
  C  C533  1  0.941200  0.818200  0.240800  1.0  -0.1878
  C  C534  1  0.900900  0.770500  0.228300  1.0  0.0683
  C  C535  1  0.892700  0.762300  0.182400  1.0  -0.1969
  C  C536  1  0.922800  0.800500  0.152800  1.0  0.1273
  C  C537  1  0.502000  0.243200  0.664500  1.0  0.1163
  C  C538  1  0.503100  0.185100  0.663900  1.0  -0.2251
  C  C539  1  0.524500  0.156500  0.625900  1.0  0.064
  C  C540  1  0.545400  0.188800  0.589500  1.0  -0.2094
  C  C541  1  0.543800  0.247100  0.592800  1.0  0.132
  C  C542  1  0.566100  0.786100  0.582300  1.0  0.1449
  C  C543  1  0.596000  0.748800  0.552400  1.0  -0.1988
  C  C544  1  0.618300  0.768000  0.511100  1.0  0.0812
  C  C545  1  0.608400  0.825500  0.502200  1.0  -0.1998
  C  C546  1  0.578500  0.859900  0.534400  1.0  0.1346
  C  C547  1  0.719500  0.646400  0.459100  1.0  0.1499
  C  C548  1  0.691200  0.681800  0.490800  1.0  -0.188
  C  C549  1  0.650900  0.729500  0.478300  1.0  0.0687
  C  C550  1  0.642700  0.737700  0.432400  1.0  -0.1978
  C  C551  1  0.672800  0.699500  0.402800  1.0  0.1271
  C  C552  1  0.502000  0.743200  0.164500  1.0  0.1163
  C  C553  1  0.503100  0.685100  0.163900  1.0  -0.2251
  C  C554  1  0.524500  0.656500  0.125900  1.0  0.064
  C  C555  1  0.545400  0.688800  0.089500  1.0  -0.2094
  C  C556  1  0.543800  0.747100  0.092800  1.0  0.132
  C  C557  1  0.566100  0.286100  0.082300  1.0  0.1449
  C  C558  1  0.596000  0.248800  0.052400  1.0  -0.1988
  C  C559  1  0.618300  0.268000  0.011100  1.0  0.0812
  C  C560  1  0.608400  0.325500  0.002200  1.0  -0.1998
  C  C561  1  0.578500  0.359900  0.034400  1.0  0.1346
  C  C562  1  0.719500  0.146400  0.959100  1.0  0.1499
  C  C563  1  0.691200  0.181800  0.990800  1.0  -0.188
  C  C564  1  0.650900  0.229500  0.978300  1.0  0.0687
  C  C565  1  0.642700  0.237700  0.932400  1.0  -0.1978
  C  C566  1  0.672800  0.199500  0.902800  1.0  0.1271
  C  C567  1  0.002000  0.243200  0.164500  1.0  0.1163
  C  C568  1  0.003100  0.185100  0.163900  1.0  -0.2251
  C  C569  1  0.024500  0.156500  0.125900  1.0  0.064
  C  C570  1  0.045400  0.188800  0.089500  1.0  -0.2094
  C  C571  1  0.043800  0.247100  0.092800  1.0  0.132
  C  C572  1  0.066100  0.786100  0.082300  1.0  0.1449
  C  C573  1  0.096000  0.748800  0.052400  1.0  -0.1988
  C  C574  1  0.118300  0.768000  0.011100  1.0  0.0812
  C  C575  1  0.108400  0.825500  0.002200  1.0  -0.1998
  C  C576  1  0.078500  0.859900  0.034400  1.0  0.1346
  C  C577  1  0.219500  0.646400  0.959100  1.0  0.1499
  C  C578  1  0.191200  0.681800  0.990800  1.0  -0.188
  C  C579  1  0.150900  0.729500  0.978300  1.0  0.0687
  C  C580  1  0.142700  0.737700  0.932400  1.0  -0.1978
  C  C581  1  0.172800  0.699500  0.902800  1.0  0.1271
  C  C582  1  0.002000  0.743200  0.664500  1.0  0.1163
  C  C583  1  0.003100  0.685100  0.663900  1.0  -0.2251
  C  C584  1  0.024500  0.656500  0.625900  1.0  0.064
  C  C585  1  0.045400  0.688800  0.589500  1.0  -0.2094
  C  C586  1  0.043800  0.747100  0.592800  1.0  0.132
  C  C587  1  0.066100  0.286100  0.582300  1.0  0.1449
  C  C588  1  0.096000  0.248800  0.552400  1.0  -0.1988
  C  C589  1  0.118300  0.268000  0.511100  1.0  0.0812
  C  C590  1  0.108400  0.325500  0.502200  1.0  -0.1998
  C  C591  1  0.078500  0.359900  0.534400  1.0  0.1346
  C  C592  1  0.219500  0.146400  0.459100  1.0  0.1499
  C  C593  1  0.191200  0.181800  0.490800  1.0  -0.188
  C  C594  1  0.150900  0.229500  0.478300  1.0  0.0687
  C  C595  1  0.142700  0.237700  0.432400  1.0  -0.1978
  C  C596  1  0.172800  0.199500  0.402800  1.0  0.1271
  C  C597  1  0.502000  0.006800  0.585500  1.0  0.1177
  C  C598  1  0.503100  0.064900  0.586100  1.0  -0.2246
  C  C599  1  0.524500  0.093500  0.624100  1.0  0.0638
  C  C600  1  0.545400  0.061200  0.660500  1.0  -0.2113
  C  C601  1  0.543800  0.002900  0.657200  1.0  0.1316
  C  C602  1  0.566100  0.463900  0.667700  1.0  0.1447
  C  C603  1  0.596000  0.501200  0.697600  1.0  -0.197
  C  C604  1  0.618300  0.482000  0.738900  1.0  0.0815
  C  C605  1  0.608400  0.424500  0.747800  1.0  -0.1993
  C  C606  1  0.578500  0.390100  0.715600  1.0  0.1341
  C  C607  1  0.719500  0.603600  0.790900  1.0  0.1499
  C  C608  1  0.691200  0.568200  0.759200  1.0  -0.1892
  C  C609  1  0.650900  0.520500  0.771700  1.0  0.0683
  C  C610  1  0.642700  0.512300  0.817600  1.0  -0.1968
  C  C611  1  0.672800  0.550500  0.847200  1.0  0.1267
  C  C612  1  0.502000  0.506800  0.085500  1.0  0.1177
  C  C613  1  0.503100  0.564900  0.086100  1.0  -0.2246
  C  C614  1  0.524500  0.593500  0.124100  1.0  0.0638
  C  C615  1  0.545400  0.561200  0.160500  1.0  -0.2113
  C  C616  1  0.543800  0.502900  0.157200  1.0  0.1316
  C  C617  1  0.566100  0.963900  0.167700  1.0  0.1447
  C  C618  1  0.596000  0.001200  0.197600  1.0  -0.197
  C  C619  1  0.618300  0.982000  0.238900  1.0  0.0815
  C  C620  1  0.608400  0.924500  0.247800  1.0  -0.1993
  C  C621  1  0.578500  0.890100  0.215600  1.0  0.1341
  C  C622  1  0.719500  0.103600  0.290900  1.0  0.1499
  C  C623  1  0.691200  0.068200  0.259200  1.0  -0.1892
  C  C624  1  0.650900  0.020500  0.271700  1.0  0.0683
  C  C625  1  0.642700  0.012300  0.317600  1.0  -0.1968
  C  C626  1  0.672800  0.050500  0.347200  1.0  0.1267
  C  C627  1  0.002000  0.006800  0.085500  1.0  0.1177
  C  C628  1  0.003100  0.064900  0.086100  1.0  -0.2246
  C  C629  1  0.024500  0.093500  0.124100  1.0  0.0638
  C  C630  1  0.045400  0.061200  0.160500  1.0  -0.2113
  C  C631  1  0.043800  0.002900  0.157200  1.0  0.1316
  C  C632  1  0.066100  0.463900  0.167700  1.0  0.1447
  C  C633  1  0.096000  0.501200  0.197600  1.0  -0.197
  C  C634  1  0.118300  0.482000  0.238900  1.0  0.0815
  C  C635  1  0.108400  0.424500  0.247800  1.0  -0.1993
  C  C636  1  0.078500  0.390100  0.215600  1.0  0.1341
  C  C637  1  0.219500  0.603600  0.290900  1.0  0.1499
  C  C638  1  0.191200  0.568200  0.259200  1.0  -0.1892
  C  C639  1  0.150900  0.520500  0.271700  1.0  0.0683
  C  C640  1  0.142700  0.512300  0.317600  1.0  -0.1968
  C  C641  1  0.172800  0.550500  0.347200  1.0  0.1267
  C  C642  1  0.002000  0.506800  0.585500  1.0  0.1177
  C  C643  1  0.003100  0.564900  0.586100  1.0  -0.2246
  C  C644  1  0.024500  0.593500  0.624100  1.0  0.0638
  C  C645  1  0.045400  0.561200  0.660500  1.0  -0.2113
  C  C646  1  0.043800  0.502900  0.657200  1.0  0.1316
  C  C647  1  0.066100  0.963900  0.667700  1.0  0.1447
  C  C648  1  0.096000  0.001200  0.697600  1.0  -0.197
  C  C649  1  0.118300  0.982000  0.738900  1.0  0.0815
  C  C650  1  0.108400  0.924500  0.747800  1.0  -0.1993
  C  C651  1  0.078500  0.890100  0.715600  1.0  0.1341
  C  C652  1  0.219500  0.103600  0.790900  1.0  0.1499
  C  C653  1  0.191200  0.068200  0.759200  1.0  -0.1892
  C  C654  1  0.150900  0.020500  0.771700  1.0  0.0683
  C  C655  1  0.142700  0.012300  0.817600  1.0  -0.1968
  C  C656  1  0.172800  0.050500  0.847200  1.0  0.1267
  C  C657  1  0.498000  0.756800  0.335500  1.0  0.1168
  C  C658  1  0.496900  0.814900  0.336100  1.0  -0.2244
  C  C659  1  0.475500  0.843500  0.374100  1.0  0.0647
  C  C660  1  0.454600  0.811200  0.410500  1.0  -0.2125
  C  C661  1  0.456200  0.752900  0.407200  1.0  0.1306
  C  C662  1  0.433900  0.213900  0.417700  1.0  0.1437
  C  C663  1  0.404000  0.251200  0.447600  1.0  -0.1973
  C  C664  1  0.381700  0.232000  0.488900  1.0  0.0813
  C  C665  1  0.391600  0.174500  0.497800  1.0  -0.2008
  C  C666  1  0.421500  0.140100  0.465600  1.0  0.1343
  C  C667  1  0.280500  0.353600  0.540900  1.0  0.1511
  C  C668  1  0.308800  0.318200  0.509200  1.0  -0.1888
  C  C669  1  0.349100  0.270500  0.521700  1.0  0.0688
  C  C670  1  0.357300  0.262300  0.567600  1.0  -0.1966
  C  C671  1  0.327200  0.300500  0.597200  1.0  0.1269
  C  C672  1  0.498000  0.256800  0.835500  1.0  0.1168
  C  C673  1  0.496900  0.314900  0.836100  1.0  -0.2244
  C  C674  1  0.475500  0.343500  0.874100  1.0  0.0647
  C  C675  1  0.454600  0.311200  0.910500  1.0  -0.2125
  C  C676  1  0.456200  0.252900  0.907200  1.0  0.1306
  C  C677  1  0.433900  0.713900  0.917700  1.0  0.1437
  C  C678  1  0.404000  0.751200  0.947600  1.0  -0.1973
  C  C679  1  0.381700  0.732000  0.988900  1.0  0.0813
  C  C680  1  0.391600  0.674500  0.997800  1.0  -0.2008
  C  C681  1  0.421500  0.640100  0.965600  1.0  0.1343
  C  C682  1  0.280500  0.853600  0.040900  1.0  0.1511
  C  C683  1  0.308800  0.818200  0.009200  1.0  -0.1888
  C  C684  1  0.349100  0.770500  0.021700  1.0  0.0688
  C  C685  1  0.357300  0.762300  0.067600  1.0  -0.1966
  C  C686  1  0.327200  0.800500  0.097200  1.0  0.1269
  C  C687  1  0.998000  0.756800  0.835500  1.0  0.1168
  C  C688  1  0.996900  0.814900  0.836100  1.0  -0.2244
  C  C689  1  0.975500  0.843500  0.874100  1.0  0.0647
  C  C690  1  0.954600  0.811200  0.910500  1.0  -0.2125
  C  C691  1  0.956200  0.752900  0.907200  1.0  0.1306
  C  C692  1  0.933900  0.213900  0.917700  1.0  0.1437
  C  C693  1  0.904000  0.251200  0.947600  1.0  -0.1973
  C  C694  1  0.881700  0.232000  0.988900  1.0  0.0813
  C  C695  1  0.891600  0.174500  0.997800  1.0  -0.2008
  C  C696  1  0.921500  0.140100  0.965600  1.0  0.1343
  C  C697  1  0.780500  0.353600  0.040900  1.0  0.1511
  C  C698  1  0.808800  0.318200  0.009200  1.0  -0.1888
  C  C699  1  0.849100  0.270500  0.021700  1.0  0.0688
  C  C700  1  0.857300  0.262300  0.067600  1.0  -0.1966
  C  C701  1  0.827200  0.300500  0.097200  1.0  0.1269
  C  C702  1  0.998000  0.256800  0.335500  1.0  0.1168
  C  C703  1  0.996900  0.314900  0.336100  1.0  -0.2244
  C  C704  1  0.975500  0.343500  0.374100  1.0  0.0647
  C  C705  1  0.954600  0.311200  0.410500  1.0  -0.2125
  C  C706  1  0.956200  0.252900  0.407200  1.0  0.1306
  C  C707  1  0.933900  0.713900  0.417700  1.0  0.1437
  C  C708  1  0.904000  0.751200  0.447600  1.0  -0.1973
  C  C709  1  0.881700  0.732000  0.488900  1.0  0.0813
  C  C710  1  0.891600  0.674500  0.497800  1.0  -0.2008
  C  C711  1  0.921500  0.640100  0.465600  1.0  0.1343
  C  C712  1  0.780500  0.853600  0.540900  1.0  0.1511
  C  C713  1  0.808800  0.818200  0.509200  1.0  -0.1888
  C  C714  1  0.849100  0.770500  0.521700  1.0  0.0688
  C  C715  1  0.857300  0.762300  0.567600  1.0  -0.1966
  C  C716  1  0.827200  0.800500  0.597200  1.0  0.1269
  C  C717  1  0.498000  0.993200  0.414500  1.0  0.1168
  C  C718  1  0.496900  0.935100  0.413900  1.0  -0.2248
  C  C719  1  0.475500  0.906500  0.375900  1.0  0.0649
  C  C720  1  0.454600  0.938800  0.339500  1.0  -0.2102
  C  C721  1  0.456200  0.997100  0.342800  1.0  0.1315
  C  C722  1  0.433900  0.536100  0.332300  1.0  0.1442
  C  C723  1  0.404000  0.498800  0.302400  1.0  -0.1983
  C  C724  1  0.381700  0.518000  0.261100  1.0  0.0812
  C  C725  1  0.391600  0.575500  0.252200  1.0  -0.2012
  C  C726  1  0.421500  0.609900  0.284400  1.0  0.1348
  C  C727  1  0.280500  0.396400  0.209100  1.0  0.1513
  C  C728  1  0.308800  0.431800  0.240800  1.0  -0.1885
  C  C729  1  0.349100  0.479500  0.228300  1.0  0.0691
  C  C730  1  0.357300  0.487700  0.182400  1.0  -0.1975
  C  C731  1  0.327200  0.449500  0.152800  1.0  0.1272
  C  C732  1  0.498000  0.493200  0.914500  1.0  0.1168
  C  C733  1  0.496900  0.435100  0.913900  1.0  -0.2248
  C  C734  1  0.475500  0.406500  0.875900  1.0  0.0649
  C  C735  1  0.454600  0.438800  0.839500  1.0  -0.2102
  C  C736  1  0.456200  0.497100  0.842800  1.0  0.1315
  C  C737  1  0.433900  0.036100  0.832300  1.0  0.1442
  C  C738  1  0.404000  0.998800  0.802400  1.0  -0.1983
  C  C739  1  0.381700  0.018000  0.761100  1.0  0.0812
  C  C740  1  0.391600  0.075500  0.752200  1.0  -0.2012
  C  C741  1  0.421500  0.109900  0.784400  1.0  0.1348
  C  C742  1  0.280500  0.896400  0.709100  1.0  0.1513
  C  C743  1  0.308800  0.931800  0.740800  1.0  -0.1885
  C  C744  1  0.349100  0.979500  0.728300  1.0  0.0691
  C  C745  1  0.357300  0.987700  0.682400  1.0  -0.1975
  C  C746  1  0.327200  0.949500  0.652800  1.0  0.1272
  C  C747  1  0.998000  0.993200  0.914500  1.0  0.1168
  C  C748  1  0.996900  0.935100  0.913900  1.0  -0.2248
  C  C749  1  0.975500  0.906500  0.875900  1.0  0.0649
  C  C750  1  0.954600  0.938800  0.839500  1.0  -0.2102
  C  C751  1  0.956200  0.997100  0.842800  1.0  0.1315
  C  C752  1  0.933900  0.536100  0.832300  1.0  0.1442
  C  C753  1  0.904000  0.498800  0.802400  1.0  -0.1983
  C  C754  1  0.881700  0.518000  0.761100  1.0  0.0812
  C  C755  1  0.891600  0.575500  0.752200  1.0  -0.2012
  C  C756  1  0.921500  0.609900  0.784400  1.0  0.1348
  C  C757  1  0.780500  0.396400  0.709100  1.0  0.1513
  C  C758  1  0.808800  0.431800  0.740800  1.0  -0.1885
  C  C759  1  0.849100  0.479500  0.728300  1.0  0.0691
  C  C760  1  0.857300  0.487700  0.682400  1.0  -0.1975
  C  C761  1  0.827200  0.449500  0.652800  1.0  0.1272
  C  C762  1  0.998000  0.493200  0.414500  1.0  0.1168
  C  C763  1  0.996900  0.435100  0.413900  1.0  -0.2248
  C  C764  1  0.975500  0.406500  0.375900  1.0  0.0649
  C  C765  1  0.954600  0.438800  0.339500  1.0  -0.2102
  C  C766  1  0.956200  0.497100  0.342800  1.0  0.1315
  C  C767  1  0.933900  0.036100  0.332300  1.0  0.1442
  C  C768  1  0.904000  0.998800  0.302400  1.0  -0.1983
  C  C769  1  0.881700  0.018000  0.261100  1.0  0.0812
  C  C770  1  0.891600  0.075500  0.252200  1.0  -0.2012
  C  C771  1  0.921500  0.109900  0.284400  1.0  0.1348
  C  C772  1  0.780500  0.896400  0.209100  1.0  0.1513
  C  C773  1  0.808800  0.931800  0.240800  1.0  -0.1885
  C  C774  1  0.849100  0.979500  0.228300  1.0  0.0691
  C  C775  1  0.857300  0.987700  0.182400  1.0  -0.1975
  C  C776  1  0.827200  0.949500  0.152800  1.0  0.1272
  C  C777  1  0.748000  0.006800  0.664500  1.0  0.1175
  C  C778  1  0.746900  0.064900  0.663900  1.0  -0.2241
  C  C779  1  0.725500  0.093500  0.625900  1.0  0.0647
  C  C780  1  0.704600  0.061200  0.589500  1.0  -0.2107
  C  C781  1  0.706200  0.002900  0.592800  1.0  0.1312
  C  C782  1  0.683900  0.463900  0.582300  1.0  0.1443
  C  C783  1  0.654000  0.501200  0.552400  1.0  -0.1977
  C  C784  1  0.631700  0.482000  0.511100  1.0  0.081
  C  C785  1  0.641600  0.424500  0.502200  1.0  -0.2016
  C  C786  1  0.671500  0.390100  0.534400  1.0  0.1344
  C  C787  1  0.530500  0.603600  0.459100  1.0  0.1511
  C  C788  1  0.558800  0.568200  0.490800  1.0  -0.1883
  C  C789  1  0.599100  0.520500  0.478300  1.0  0.0686
  C  C790  1  0.607300  0.512300  0.432400  1.0  -0.1968
  C  C791  1  0.577200  0.550500  0.402800  1.0  0.1274
  C  C792  1  0.748000  0.506800  0.164500  1.0  0.1175
  C  C793  1  0.746900  0.564900  0.163900  1.0  -0.2241
  C  C794  1  0.725500  0.593500  0.125900  1.0  0.0647
  C  C795  1  0.704600  0.561200  0.089500  1.0  -0.2107
  C  C796  1  0.706200  0.502900  0.092800  1.0  0.1312
  C  C797  1  0.683900  0.963900  0.082300  1.0  0.1443
  C  C798  1  0.654000  0.001200  0.052400  1.0  -0.1977
  C  C799  1  0.631700  0.982000  0.011100  1.0  0.081
  C  C800  1  0.641600  0.924500  0.002200  1.0  -0.2016
  C  C801  1  0.671500  0.890100  0.034400  1.0  0.1344
  C  C802  1  0.530500  0.103600  0.959100  1.0  0.1511
  C  C803  1  0.558800  0.068200  0.990800  1.0  -0.1883
  C  C804  1  0.599100  0.020500  0.978300  1.0  0.0686
  C  C805  1  0.607300  0.012300  0.932400  1.0  -0.1968
  C  C806  1  0.577200  0.050500  0.902800  1.0  0.1274
  C  C807  1  0.248000  0.006800  0.164500  1.0  0.1175
  C  C808  1  0.246900  0.064900  0.163900  1.0  -0.2241
  C  C809  1  0.225500  0.093500  0.125900  1.0  0.0647
  C  C810  1  0.204600  0.061200  0.089500  1.0  -0.2107
  C  C811  1  0.206200  0.002900  0.092800  1.0  0.1312
  C  C812  1  0.183900  0.463900  0.082300  1.0  0.1443
  C  C813  1  0.154000  0.501200  0.052400  1.0  -0.1977
  C  C814  1  0.131700  0.482000  0.011100  1.0  0.081
  C  C815  1  0.141600  0.424500  0.002200  1.0  -0.2016
  C  C816  1  0.171500  0.390100  0.034400  1.0  0.1344
  C  C817  1  0.030500  0.603600  0.959100  1.0  0.1511
  C  C818  1  0.058800  0.568200  0.990800  1.0  -0.1883
  C  C819  1  0.099100  0.520500  0.978300  1.0  0.0686
  C  C820  1  0.107300  0.512300  0.932400  1.0  -0.1968
  C  C821  1  0.077200  0.550500  0.902800  1.0  0.1274
  C  C822  1  0.248000  0.506800  0.664500  1.0  0.1175
  C  C823  1  0.246900  0.564900  0.663900  1.0  -0.2241
  C  C824  1  0.225500  0.593500  0.625900  1.0  0.0647
  C  C825  1  0.204600  0.561200  0.589500  1.0  -0.2107
  C  C826  1  0.206200  0.502900  0.592800  1.0  0.1312
  C  C827  1  0.183900  0.963900  0.582300  1.0  0.1443
  C  C828  1  0.154000  0.001200  0.552400  1.0  -0.1977
  C  C829  1  0.131700  0.982000  0.511100  1.0  0.081
  C  C830  1  0.141600  0.924500  0.502200  1.0  -0.2016
  C  C831  1  0.171500  0.890100  0.534400  1.0  0.1344
  C  C832  1  0.030500  0.103600  0.459100  1.0  0.1511
  C  C833  1  0.058800  0.068200  0.490800  1.0  -0.1883
  C  C834  1  0.099100  0.020500  0.478300  1.0  0.0686
  C  C835  1  0.107300  0.012300  0.432400  1.0  -0.1968
  C  C836  1  0.077200  0.050500  0.402800  1.0  0.1274
  C  C837  1  0.748000  0.243200  0.585500  1.0  0.117
  C  C838  1  0.746900  0.185100  0.586100  1.0  -0.2248
  C  C839  1  0.725500  0.156500  0.624100  1.0  0.065
  C  C840  1  0.704600  0.188800  0.660500  1.0  -0.2118
  C  C841  1  0.706200  0.247100  0.657200  1.0  0.1305
  C  C842  1  0.683900  0.786100  0.667700  1.0  0.1432
  C  C843  1  0.654000  0.748800  0.697600  1.0  -0.1986
  C  C844  1  0.631700  0.768000  0.738900  1.0  0.0814
  C  C845  1  0.641600  0.825500  0.747800  1.0  -0.201
  C  C846  1  0.671500  0.859900  0.715600  1.0  0.1344
  C  C847  1  0.530500  0.646400  0.790900  1.0  0.1509
  C  C848  1  0.558800  0.681800  0.759200  1.0  -0.1888
  C  C849  1  0.599100  0.729500  0.771700  1.0  0.0693
  C  C850  1  0.607300  0.737700  0.817600  1.0  -0.1973
  C  C851  1  0.577200  0.699500  0.847200  1.0  0.127
  C  C852  1  0.748000  0.743200  0.085500  1.0  0.117
  C  C853  1  0.746900  0.685100  0.086100  1.0  -0.2248
  C  C854  1  0.725500  0.656500  0.124100  1.0  0.065
  C  C855  1  0.704600  0.688800  0.160500  1.0  -0.2118
  C  C856  1  0.706200  0.747100  0.157200  1.0  0.1305
  C  C857  1  0.683900  0.286100  0.167700  1.0  0.1432
  C  C858  1  0.654000  0.248800  0.197600  1.0  -0.1986
  C  C859  1  0.631700  0.268000  0.238900  1.0  0.0814
  C  C860  1  0.641600  0.325500  0.247800  1.0  -0.201
  C  C861  1  0.671500  0.359900  0.215600  1.0  0.1344
  C  C862  1  0.530500  0.146400  0.290900  1.0  0.1509
  C  C863  1  0.558800  0.181800  0.259200  1.0  -0.1888
  C  C864  1  0.599100  0.229500  0.271700  1.0  0.0693
  C  C865  1  0.607300  0.237700  0.317600  1.0  -0.1973
  C  C866  1  0.577200  0.199500  0.347200  1.0  0.127
  C  C867  1  0.248000  0.243200  0.085500  1.0  0.117
  C  C868  1  0.246900  0.185100  0.086100  1.0  -0.2248
  C  C869  1  0.225500  0.156500  0.124100  1.0  0.065
  C  C870  1  0.204600  0.188800  0.160500  1.0  -0.2118
  C  C871  1  0.206200  0.247100  0.157200  1.0  0.1305
  C  C872  1  0.183900  0.786100  0.167700  1.0  0.1432
  C  C873  1  0.154000  0.748800  0.197600  1.0  -0.1986
  C  C874  1  0.131700  0.768000  0.238900  1.0  0.0814
  C  C875  1  0.141600  0.825500  0.247800  1.0  -0.201
  C  C876  1  0.171500  0.859900  0.215600  1.0  0.1344
  C  C877  1  0.030500  0.646400  0.290900  1.0  0.1509
  C  C878  1  0.058800  0.681800  0.259200  1.0  -0.1888
  C  C879  1  0.099100  0.729500  0.271700  1.0  0.0693
  C  C880  1  0.107300  0.737700  0.317600  1.0  -0.1973
  C  C881  1  0.077200  0.699500  0.347200  1.0  0.127
  C  C882  1  0.248000  0.743200  0.585500  1.0  0.117
  C  C883  1  0.246900  0.685100  0.586100  1.0  -0.2248
  C  C884  1  0.225500  0.656500  0.624100  1.0  0.065
  C  C885  1  0.204600  0.688800  0.660500  1.0  -0.2118
  C  C886  1  0.206200  0.747100  0.657200  1.0  0.1305
  C  C887  1  0.183900  0.286100  0.667700  1.0  0.1432
  C  C888  1  0.154000  0.248800  0.697600  1.0  -0.1986
  C  C889  1  0.131700  0.268000  0.738900  1.0  0.0814
  C  C890  1  0.141600  0.325500  0.747800  1.0  -0.201
  C  C891  1  0.171500  0.359900  0.715600  1.0  0.1344
  C  C892  1  0.030500  0.146400  0.790900  1.0  0.1509
  C  C893  1  0.058800  0.181800  0.759200  1.0  -0.1888
  C  C894  1  0.099100  0.229500  0.771700  1.0  0.0693
  C  C895  1  0.107300  0.237700  0.817600  1.0  -0.1973
  C  C896  1  0.077200  0.199500  0.847200  1.0  0.127
  N  N897  1  0.271300  0.025000  0.370600  1.0  -0.338
  N  N898  1  0.307200  0.591200  0.425700  1.0  -0.3506
  N  N899  1  0.461800  0.404500  0.584600  1.0  -0.3547
  N  N900  1  0.271300  0.525000  0.870600  1.0  -0.338
  N  N901  1  0.307200  0.091200  0.925700  1.0  -0.3506
  N  N902  1  0.461800  0.904500  0.084600  1.0  -0.3547
  N  N903  1  0.771300  0.025000  0.870600  1.0  -0.338
  N  N904  1  0.807200  0.591200  0.925700  1.0  -0.3506
  N  N905  1  0.961800  0.404500  0.084600  1.0  -0.3547
  N  N906  1  0.771300  0.525000  0.370600  1.0  -0.338
  N  N907  1  0.807200  0.091200  0.425700  1.0  -0.3506
  N  N908  1  0.961800  0.904500  0.584600  1.0  -0.3547
  N  N909  1  0.271300  0.725000  0.379400  1.0  -0.3385
  N  N910  1  0.307200  0.158800  0.324300  1.0  -0.3511
  N  N911  1  0.461800  0.345500  0.165400  1.0  -0.3555
  N  N912  1  0.271300  0.225000  0.879400  1.0  -0.3385
  N  N913  1  0.307200  0.658800  0.824300  1.0  -0.3511
  N  N914  1  0.461800  0.845500  0.665400  1.0  -0.3555
  N  N915  1  0.771300  0.725000  0.879400  1.0  -0.3385
  N  N916  1  0.807200  0.158800  0.824300  1.0  -0.3511
  N  N917  1  0.961800  0.345500  0.665400  1.0  -0.3555
  N  N918  1  0.771300  0.225000  0.379400  1.0  -0.3385
  N  N919  1  0.807200  0.658800  0.324300  1.0  -0.3511
  N  N920  1  0.961800  0.845500  0.165400  1.0  -0.3555
  N  N921  1  0.521300  0.275000  0.629400  1.0  -0.338
  N  N922  1  0.557200  0.841200  0.574300  1.0  -0.3518
  N  N923  1  0.711800  0.654500  0.415400  1.0  -0.3554
  N  N924  1  0.521300  0.775000  0.129400  1.0  -0.338
  N  N925  1  0.557200  0.341200  0.074300  1.0  -0.3518
  N  N926  1  0.711800  0.154500  0.915400  1.0  -0.3554
  N  N927  1  0.021300  0.275000  0.129400  1.0  -0.338
  N  N928  1  0.057200  0.841200  0.074300  1.0  -0.3518
  N  N929  1  0.211800  0.654500  0.915400  1.0  -0.3554
  N  N930  1  0.021300  0.775000  0.629400  1.0  -0.338
  N  N931  1  0.057200  0.341200  0.574300  1.0  -0.3518
  N  N932  1  0.211800  0.154500  0.415400  1.0  -0.3554
  N  N933  1  0.521300  0.975000  0.620600  1.0  -0.3384
  N  N934  1  0.557200  0.408800  0.675700  1.0  -0.3507
  N  N935  1  0.711800  0.595500  0.834600  1.0  -0.3556
  N  N936  1  0.521300  0.475000  0.120600  1.0  -0.3384
  N  N937  1  0.557200  0.908800  0.175700  1.0  -0.3507
  N  N938  1  0.711800  0.095500  0.334600  1.0  -0.3556
  N  N939  1  0.021300  0.975000  0.120600  1.0  -0.3384
  N  N940  1  0.057200  0.408800  0.175700  1.0  -0.3507
  N  N941  1  0.211800  0.595500  0.334600  1.0  -0.3556
  N  N942  1  0.021300  0.475000  0.620600  1.0  -0.3384
  N  N943  1  0.057200  0.908800  0.675700  1.0  -0.3507
  N  N944  1  0.211800  0.095500  0.834600  1.0  -0.3556
  N  N945  1  0.478700  0.725000  0.370600  1.0  -0.3377
  N  N946  1  0.442800  0.158800  0.425700  1.0  -0.3492
  N  N947  1  0.288200  0.345500  0.584600  1.0  -0.3553
  N  N948  1  0.478700  0.225000  0.870600  1.0  -0.3377
  N  N949  1  0.442800  0.658800  0.925700  1.0  -0.3492
  N  N950  1  0.288200  0.845500  0.084600  1.0  -0.3553
  N  N951  1  0.978700  0.725000  0.870600  1.0  -0.3377
  N  N952  1  0.942800  0.158800  0.925700  1.0  -0.3492
  N  N953  1  0.788200  0.345500  0.084600  1.0  -0.3553
  N  N954  1  0.978700  0.225000  0.370600  1.0  -0.3377
  N  N955  1  0.942800  0.658800  0.425700  1.0  -0.3492
  N  N956  1  0.788200  0.845500  0.584600  1.0  -0.3553
  N  N957  1  0.478700  0.025000  0.379400  1.0  -0.3378
  N  N958  1  0.442800  0.591200  0.324300  1.0  -0.3498
  N  N959  1  0.288200  0.404500  0.165400  1.0  -0.3551
  N  N960  1  0.478700  0.525000  0.879400  1.0  -0.3378
  N  N961  1  0.442800  0.091200  0.824300  1.0  -0.3498
  N  N962  1  0.288200  0.904500  0.665400  1.0  -0.3551
  N  N963  1  0.978700  0.025000  0.879400  1.0  -0.3378
  N  N964  1  0.942800  0.591200  0.824300  1.0  -0.3498
  N  N965  1  0.788200  0.404500  0.665400  1.0  -0.3551
  N  N966  1  0.978700  0.525000  0.379400  1.0  -0.3378
  N  N967  1  0.942800  0.091200  0.324300  1.0  -0.3498
  N  N968  1  0.788200  0.904500  0.165400  1.0  -0.3551
  N  N969  1  0.728700  0.975000  0.629400  1.0  -0.3379
  N  N970  1  0.692800  0.408800  0.574300  1.0  -0.3487
  N  N971  1  0.538200  0.595500  0.415400  1.0  -0.3551
  N  N972  1  0.728700  0.475000  0.129400  1.0  -0.3379
  N  N973  1  0.692800  0.908800  0.074300  1.0  -0.3487
  N  N974  1  0.538200  0.095500  0.915400  1.0  -0.3551
  N  N975  1  0.228700  0.975000  0.129400  1.0  -0.3379
  N  N976  1  0.192800  0.408800  0.074300  1.0  -0.3487
  N  N977  1  0.038200  0.595500  0.915400  1.0  -0.3551
  N  N978  1  0.228700  0.475000  0.629400  1.0  -0.3379
  N  N979  1  0.192800  0.908800  0.574300  1.0  -0.3487
  N  N980  1  0.038200  0.095500  0.415400  1.0  -0.3551
  N  N981  1  0.728700  0.275000  0.620600  1.0  -0.3378
  N  N982  1  0.692800  0.841200  0.675700  1.0  -0.3496
  N  N983  1  0.538200  0.654500  0.834600  1.0  -0.3543
  N  N984  1  0.728700  0.775000  0.120600  1.0  -0.3378
  N  N985  1  0.692800  0.341200  0.175700  1.0  -0.3496
  N  N986  1  0.538200  0.154500  0.334600  1.0  -0.3543
  N  N987  1  0.228700  0.275000  0.120600  1.0  -0.3378
  N  N988  1  0.192800  0.841200  0.175700  1.0  -0.3496
  N  N989  1  0.038200  0.654500  0.334600  1.0  -0.3543
  N  N990  1  0.228700  0.775000  0.620600  1.0  -0.3378
  N  N991  1  0.192800  0.341200  0.675700  1.0  -0.3496
  N  N992  1  0.038200  0.154500  0.834600  1.0  -0.3543
