# generated using pymatgen
data_InH20C36(NO2)2
_symmetry_space_group_name_H-M   'P 1'
_cell_length_a   21.55880000
_cell_length_b   23.59700000
_cell_length_c   43.75500000
_cell_angle_alpha   92.34380000
_cell_angle_beta   90.00000000
_cell_angle_gamma   117.18200000
_symmetry_Int_Tables_number   1
_chemical_formula_structural   InH20C36(NO2)2
_chemical_formula_sum   'In16 H320 C576 N32 O64'
_cell_volume   19779.93451540
_cell_formula_units_Z   16
loop_
 _symmetry_equiv_pos_site_id
 _symmetry_equiv_pos_as_xyz
  1  'x, y, z'
loop_
 _atom_site_type_symbol
 _atom_site_label
 _atom_site_symmetry_multiplicity
 _atom_site_fract_x
 _atom_site_fract_y
 _atom_site_fract_z
 _atom_site_occupancy
 _atom_site_charge
  In  In1  1  0.344340  0.585020  0.495010  1.0  1.4787
  In  In2  1  0.280750  0.079600  0.744050  1.0  1.4271
  In  In3  1  0.240680  0.585020  0.995010  1.0  1.4808
  In  In4  1  0.798850  0.079600  0.244050  1.0  1.4268
  In  In5  1  0.086340  0.085180  0.369530  1.0  1.5149
  In  In6  1  0.039900  0.585280  0.618400  1.0  1.4692
  In  In7  1  0.998840  0.085180  0.869530  1.0  1.5149
  In  In8  1  0.545380  0.585280  0.118400  1.0  1.4691
  In  In9  1  0.775360  0.638960  0.938530  1.0  1.5279
  In  In10  1  0.796340  0.130600  0.687960  1.0  1.4548
  In  In11  1  0.863600  0.638960  0.438530  1.0  1.5278
  In  In12  1  0.334260  0.130600  0.187960  1.0  1.4548
  In  In13  1  0.532450  0.521340  0.840680  1.0  1.4234
  In  In14  1  0.453170  0.009560  0.088680  1.0  1.4999
  In  In15  1  0.988890  0.521340  0.340680  1.0  1.4227
  In  In16  1  0.556390  0.009560  0.588680  1.0  1.5012
  H  H17  1  0.276500  0.869800  0.773500  1.0  0.1237
  H  H18  1  0.214000  0.751400  0.584200  1.0  0.1075
  H  H19  1  0.229000  0.680800  0.549400  1.0  0.0918
  H  H20  1  0.431500  0.753400  0.576700  1.0  0.1108
  H  H21  1  0.416500  0.824000  0.611400  1.0  0.1084
  H  H22  1  0.376800  0.306000  0.819300  1.0  0.112
  H  H23  1  0.367800  0.377600  0.855400  1.0  0.121
  H  H24  1  0.166400  0.251400  0.869200  1.0  0.1184
  H  H25  1  0.175300  0.179800  0.833100  1.0  0.1116
  H  H26  1  0.361700  0.408200  0.903700  1.0  0.1119
  H  H27  1  0.354500  0.482600  0.938700  1.0  0.101
  H  H28  1  0.150500  0.417200  0.915400  1.0  0.1138
  H  H29  1  0.157600  0.342600  0.880500  1.0  0.1187
  H  H30  1  0.305800  0.299600  0.715000  1.0  0.1217
  H  H31  1  0.293600  0.300600  0.771600  1.0  0.1262
  H  H32  1  0.303500  0.025800  0.630900  1.0  0.1083
  H  H33  1  0.419400  0.296800  0.671800  1.0  0.1101
  H  H34  1  0.426100  0.364600  0.633000  1.0  0.1184
  H  H35  1  0.220200  0.256200  0.613600  1.0  0.1189
  H  H36  1  0.213400  0.188400  0.652500  1.0  0.1215
  H  H37  1  0.352100  0.905600  0.874400  1.0  0.1219
  H  H38  1  0.358800  0.975200  0.836600  1.0  0.1283
  H  H39  1  0.151000  0.872200  0.819600  1.0  0.1072
  H  H40  1  0.144300  0.802600  0.857500  1.0  0.1184
  H  H41  1  0.277300  0.864600  0.715400  1.0  0.1282
  H  H42  1  0.262500  0.133200  0.858400  1.0  0.1064
  H  H43  1  0.306100  0.132600  0.629700  1.0  0.137
  H  H44  1  0.402500  0.913000  0.619500  1.0  0.1046
  H  H45  1  0.391100  0.984800  0.654700  1.0  0.109
  H  H46  1  0.191600  0.855000  0.669500  1.0  0.1063
  H  H47  1  0.202900  0.783200  0.634200  1.0  0.1128
  H  H48  1  0.332100  0.738600  0.923000  1.0  0.1095
  H  H49  1  0.132500  0.699800  0.940800  1.0  0.1084
  H  H50  1  0.138300  0.773200  0.905200  1.0  0.1213
  H  H51  1  0.338000  0.812200  0.887400  1.0  0.119
  H  H52  1  0.440000  0.403000  0.590500  1.0  0.1157
  H  H53  1  0.231000  0.340600  0.592500  1.0  0.1163
  H  H54  1  0.240200  0.413200  0.555800  1.0  0.1019
  H  H55  1  0.449300  0.475600  0.553800  1.0  0.118
  H  H56  1  0.258000  0.029200  0.858000  1.0  0.1141
  H  H57  1  0.593300  0.869800  0.273500  1.0  0.1237
  H  H58  1  0.537400  0.751400  0.084200  1.0  0.108
  H  H59  1  0.451800  0.680800  0.049400  1.0  0.0914
  H  H60  1  0.321900  0.753400  0.076700  1.0  0.1106
  H  H61  1  0.407500  0.824000  0.111400  1.0  0.109
  H  H62  1  0.929200  0.306000  0.319300  1.0  0.1123
  H  H63  1  0.009800  0.377600  0.355400  1.0  0.1208
  H  H64  1  0.085000  0.251400  0.369200  1.0  0.1186
  H  H65  1  0.004500  0.179800  0.333100  1.0  0.1118
  H  H66  1  0.046500  0.408200  0.403700  1.0  0.1116
  H  H67  1  0.128100  0.482600  0.438700  1.0  0.1009
  H  H68  1  0.266700  0.417200  0.415400  1.0  0.1145
  H  H69  1  0.185000  0.342600  0.380500  1.0  0.1184
  H  H70  1  0.993800  0.299600  0.215000  1.0  0.1213
  H  H71  1  0.007000  0.300600  0.271600  1.0  0.1262
  H  H72  1  0.722300  0.025800  0.130900  1.0  0.1087
  H  H73  1  0.877400  0.296800  0.171800  1.0  0.1098
  H  H74  1  0.938500  0.364600  0.133000  1.0  0.1179
  H  H75  1  0.036000  0.256200  0.113600  1.0  0.1191
  H  H76  1  0.975000  0.188400  0.152500  1.0  0.1212
  H  H77  1  0.553500  0.905600  0.374400  1.0  0.122
  H  H78  1  0.616400  0.975200  0.336600  1.0  0.1288
  H  H79  1  0.721200  0.872200  0.319600  1.0  0.1077
  H  H80  1  0.658300  0.802600  0.357500  1.0  0.1184
  H  H81  1  0.587300  0.864600  0.215400  1.0  0.1282
  H  H82  1  0.870700  0.133200  0.358400  1.0  0.1062
  H  H83  1  0.826500  0.132600  0.129700  1.0  0.1372
  H  H84  1  0.510500  0.913000  0.119500  1.0  0.1044
  H  H85  1  0.593700  0.984800  0.154700  1.0  0.109
  H  H86  1  0.663400  0.855000  0.169500  1.0  0.1069
  H  H87  1  0.580300  0.783200  0.134200  1.0  0.113
  H  H88  1  0.406500  0.738600  0.423000  1.0  0.1094
  H  H89  1  0.567300  0.699800  0.440800  1.0  0.1081
  H  H90  1  0.634900  0.773200  0.405200  1.0  0.1213
  H  H91  1  0.474200  0.812200  0.387400  1.0  0.1188
  H  H92  1  0.963000  0.403000  0.090500  1.0  0.1154
  H  H93  1  0.109600  0.340600  0.092500  1.0  0.1157
  H  H94  1  0.173000  0.413200  0.055800  1.0  0.1009
  H  H95  1  0.026300  0.475600  0.053800  1.0  0.1176
  H  H96  1  0.771200  0.029200  0.358000  1.0  0.1146
  H  H97  1  0.003800  0.679000  0.510300  1.0  0.117
  H  H98  1  0.014900  0.751400  0.473200  1.0  0.1059
  H  H99  1  0.172400  0.892200  0.523200  1.0  0.1126
  H  H100  1  0.161200  0.819600  0.560300  1.0  0.1104
  H  H101  1  0.054800  0.380600  0.649400  1.0  0.1225
  H  H102  1  0.075000  0.383600  0.593400  1.0  0.1189
  H  H103  1  0.184500  0.247400  0.450400  1.0  0.1123
  H  H104  1  0.182200  0.323400  0.485800  1.0  0.1154
  H  H105  1  0.983500  0.275000  0.459200  1.0  0.1165
  H  H106  1  0.985900  0.199200  0.423800  1.0  0.1093
  H  H107  1  0.040700  0.801400  0.644300  1.0  0.1089
  H  H108  1  0.103900  0.546400  0.506200  1.0  0.1278
  H  H109  1  0.117700  0.656800  0.508400  1.0  0.1058
  H  H110  1  0.912800  0.838800  0.760700  1.0  0.1251
  H  H111  1  0.123100  0.922000  0.771400  1.0  0.1018
  H  H112  1  0.118500  0.997800  0.806200  1.0  0.0981
  H  H113  1  0.908200  0.914600  0.795500  1.0  0.0993
  H  H114  1  0.196600  0.917600  0.466500  1.0  0.1149
  H  H115  1  0.196800  0.990000  0.431500  1.0  0.109
  H  H116  1  0.985600  0.906600  0.432200  1.0  0.1144
  H  H117  1  0.985400  0.834200  0.467300  1.0  0.1006
  H  H118  1  0.181300  0.417000  0.495900  1.0  0.1142
  H  H119  1  0.177400  0.492400  0.531400  1.0  0.1124
  H  H120  1  0.972000  0.376800  0.543800  1.0  0.0995
  H  H121  1  0.976000  0.301600  0.508400  1.0  0.1196
  H  H122  1  0.928500  0.293800  0.720600  1.0  0.1155
  H  H123  1  0.937800  0.366600  0.684000  1.0  0.1074
  H  H124  1  0.118700  0.497600  0.724300  1.0  0.1167
  H  H125  1  0.109500  0.424800  0.760900  1.0  0.1221
  H  H126  1  0.054600  0.803400  0.588500  1.0  0.1214
  H  H127  1  0.025500  0.643000  0.732900  1.0  0.1277
  H  H128  1  0.908600  0.250000  0.761800  1.0  0.1127
  H  H129  1  0.900800  0.174600  0.796700  1.0  0.0977
  H  H130  1  0.110700  0.266400  0.809600  1.0  0.0982
  H  H131  1  0.118500  0.341800  0.774700  1.0  0.1167
  H  H132  1  0.930300  0.731200  0.682300  1.0  0.1232
  H  H133  1  0.925800  0.802600  0.719900  1.0  0.1145
  H  H134  1  0.112900  0.831200  0.754300  1.0  0.114
  H  H135  1  0.117400  0.759800  0.716700  1.0  0.1231
  H  H136  1  0.017400  0.534400  0.732300  1.0  0.1079
  H  H137  1  0.675200  0.679000  0.010300  1.0  0.1174
  H  H138  1  0.736500  0.751400  0.973200  1.0  0.1059
  H  H139  1  0.719800  0.892200  0.023200  1.0  0.1126
  H  H140  1  0.658400  0.819600  0.060300  1.0  0.1101
  H  H141  1  0.325800  0.380600  0.149400  1.0  0.1223
  H  H142  1  0.308600  0.383600  0.093400  1.0  0.1182
  H  H143  1  0.062900  0.247400  0.950400  1.0  0.1113
  H  H144  1  0.141200  0.323400  0.985800  1.0  0.1162
  H  H145  1  0.291500  0.275000  0.959200  1.0  0.1163
  H  H146  1  0.213300  0.199200  0.923800  1.0  0.1096
  H  H147  1  0.760700  0.801400  0.144300  1.0  0.1088
  H  H148  1  0.442500  0.546400  0.006200  1.0  0.1278
  H  H149  1  0.539100  0.656800  0.008400  1.0  0.1058
  H  H150  1  0.926000  0.838800  0.260700  1.0  0.1259
  H  H151  1  0.798900  0.922000  0.271400  1.0  0.1014
  H  H152  1  0.879300  0.997800  0.306200  1.0  0.0982
  H  H153  1  0.006400  0.914600  0.295500  1.0  0.099
  H  H154  1  0.721000  0.917600  0.966500  1.0  0.1149
  H  H155  1  0.793200  0.990000  0.931500  1.0  0.1093
  H  H156  1  0.921000  0.906600  0.932200  1.0  0.1144
  H  H157  1  0.848800  0.834200  0.967300  1.0  0.1006
  H  H158  1  0.235700  0.417000  0.995900  1.0  0.1145
  H  H159  1  0.315000  0.492400  0.031400  1.0  0.1127
  H  H160  1  0.404800  0.376800  0.043800  1.0  0.0996
  H  H161  1  0.325600  0.301600  0.008400  1.0  0.12
  H  H162  1  0.365300  0.293800  0.220600  1.0  0.1157
  H  H163  1  0.428800  0.366600  0.184000  1.0  0.1078
  H  H164  1  0.378900  0.497600  0.224300  1.0  0.117
  H  H165  1  0.315300  0.424800  0.260900  1.0  0.1225
  H  H166  1  0.748800  0.803400  0.088500  1.0  0.1213
  H  H167  1  0.617500  0.643000  0.232900  1.0  0.1274
  H  H168  1  0.341400  0.250000  0.261800  1.0  0.1131
  H  H169  1  0.273800  0.174600  0.296700  1.0  0.0976
  H  H170  1  0.155700  0.266400  0.309600  1.0  0.0978
  H  H171  1  0.223300  0.341800  0.274700  1.0  0.1162
  H  H172  1  0.800900  0.731200  0.182300  1.0  0.1226
  H  H173  1  0.876800  0.802600  0.219900  1.0  0.1167
  H  H174  1  0.718300  0.831200  0.254300  1.0  0.1139
  H  H175  1  0.642400  0.759800  0.216700  1.0  0.1231
  H  H176  1  0.517000  0.534400  0.232300  1.0  0.1079
  H  H177  1  0.799400  0.343400  0.659300  1.0  0.1246
  H  H178  1  0.793500  0.341800  0.714200  1.0  0.1157
  H  H179  1  0.781700  0.914200  0.717800  1.0  0.1209
  H  H180  1  0.872800  0.901600  0.847000  1.0  0.1106
  H  H181  1  0.873500  0.827400  0.880700  1.0  0.1141
  H  H182  1  0.663900  0.724800  0.870000  1.0  0.0958
  H  H183  1  0.663200  0.799000  0.836300  1.0  0.1144
  H  H184  1  0.850100  0.280200  0.793600  1.0  0.1108
  H  H185  1  0.849700  0.355400  0.830100  1.0  0.1208
  H  H186  1  0.673200  0.342800  0.790900  1.0  0.1122
  H  H187  1  0.673800  0.267800  0.754400  1.0  0.1137
  H  H188  1  0.736200  0.159800  0.798600  1.0  0.1211
  H  H189  1  0.736500  0.057400  0.799200  1.0  0.1147
  H  H190  1  0.835800  0.088000  0.576900  1.0  0.1103
  H  H191  1  0.684300  0.830400  0.787800  1.0  0.1167
  H  H192  1  0.839300  0.977600  0.835700  1.0  0.1153
  H  H193  1  0.843800  0.047000  0.798100  1.0  0.108
  H  H194  1  0.688800  0.899800  0.750200  1.0  0.1032
  H  H195  1  0.809600  0.177200  0.571700  1.0  0.1172
  H  H196  1  0.902900  0.349800  0.622800  1.0  0.1106
  H  H197  1  0.910300  0.421600  0.586000  1.0  0.124
  H  H198  1  0.724200  0.292200  0.549300  1.0  0.1108
  H  H199  1  0.716700  0.220200  0.586100  1.0  0.1041
  H  H200  1  0.874100  0.540800  0.871600  1.0  0.1095
  H  H201  1  0.872100  0.462600  0.836400  1.0  0.1162
  H  H202  1  0.661000  0.370800  0.839200  1.0  0.1163
  H  H203  1  0.663000  0.449000  0.874400  1.0  0.0963
  H  H204  1  0.926200  0.938400  0.582700  1.0  0.1163
  H  H205  1  0.915000  0.009800  0.618400  1.0  0.1193
  H  H206  1  0.711500  0.941000  0.593400  1.0  0.1047
  H  H207  1  0.722700  0.869800  0.557800  1.0  0.1186
  H  H208  1  0.930200  0.450000  0.540900  1.0  0.1106
  H  H209  1  0.945700  0.528200  0.506300  1.0  0.1006
  H  H210  1  0.736200  0.460400  0.498900  1.0  0.1126
  H  H211  1  0.720700  0.382200  0.533500  1.0  0.1213
  H  H212  1  0.763500  0.777200  0.480300  1.0  0.1116
  H  H213  1  0.929100  0.780400  0.525600  1.0  0.1026
  H  H214  1  0.922900  0.851600  0.562800  1.0  0.117
  H  H215  1  0.757300  0.848400  0.517500  1.0  0.1182
  H  H216  1  0.834100  0.937800  0.667900  1.0  0.1167
  H  H217  1  0.544000  0.343400  0.159300  1.0  0.1239
  H  H218  1  0.548300  0.341800  0.214200  1.0  0.1152
  H  H219  1  0.132500  0.914200  0.217800  1.0  0.1204
  H  H220  1  0.028800  0.901600  0.347000  1.0  0.1107
  H  H221  1  0.953900  0.827400  0.380700  1.0  0.114
  H  H222  1  0.060900  0.724800  0.370000  1.0  0.0957
  H  H223  1  0.135800  0.799000  0.336300  1.0  0.1145
  H  H224  1  0.430100  0.280200  0.293600  1.0  0.1104
  H  H225  1  0.505700  0.355400  0.330100  1.0  0.1209
  H  H226  1  0.669600  0.342800  0.290900  1.0  0.1127
  H  H227  1  0.594000  0.267800  0.254400  1.0  0.1139
  H  H228  1  0.423600  0.159800  0.298600  1.0  0.1203
  H  H229  1  0.320900  0.057400  0.299200  1.0  0.1137
  H  H230  1  0.252200  0.088000  0.076900  1.0  0.11
  H  H231  1  0.146100  0.830400  0.287800  1.0  0.1168
  H  H232  1  0.138300  0.977600  0.335700  1.0  0.1151
  H  H233  1  0.203200  0.047000  0.298100  1.0  0.1082
  H  H234  1  0.211000  0.899800  0.250200  1.0  0.1043
  H  H235  1  0.367600  0.177200  0.071700  1.0  0.1167
  H  H236  1  0.446900  0.349800  0.122800  1.0  0.1104
  H  H237  1  0.511300  0.421600  0.086000  1.0  0.1241
  H  H238  1  0.568000  0.292200  0.049300  1.0  0.1114
  H  H239  1  0.503500  0.220200  0.086100  1.0  0.1036
  H  H240  1  0.666667  0.540800  0.371600  1.0  0.1106
  H  H241  1  0.590500  0.462600  0.336400  1.0  0.1165
  H  H242  1  0.709800  0.370800  0.339200  1.0  0.1158
  H  H243  1  0.786000  0.449000  0.374400  1.0  0.0962
  H  H244  1  0.012200  0.938400  0.082700  1.0  0.1148
  H  H245  1  0.094800  0.009800  0.118400  1.0  0.1201
  H  H246  1  0.229500  0.941000  0.093400  1.0  0.1051
  H  H247  1  0.147100  0.869800  0.057800  1.0  0.1188
  H  H248  1  0.519800  0.450000  0.040900  1.0  0.1106
  H  H249  1  0.582500  0.528200  0.006300  1.0  0.101
  H  H250  1  0.724200  0.460400  0.998900  1.0  0.1126
  H  H251  1  0.661500  0.382200  0.033500  1.0  0.1214
  H  H252  1  0.013700  0.777200  0.980300  1.0  0.1118
  H  H253  1  0.851300  0.780400  0.025600  1.0  0.1014
  H  H254  1  0.928700  0.851600  0.062800  1.0  0.117
  H  H255  1  0.091100  0.848400  0.017500  1.0  0.1179
  H  H256  1  0.103700  0.937800  0.167900  1.0  0.1169
  H  H257  1  0.451200  0.114200  0.647600  1.0  0.1046
  H  H258  1  0.446900  0.190200  0.682300  1.0  0.1029
  H  H259  1  0.655700  0.265800  0.697100  1.0  0.1097
  H  H260  1  0.660000  0.189800  0.662300  1.0  0.0961
  H  H261  1  0.535400  0.308400  0.810600  1.0  0.1303
  H  H262  1  0.531900  0.730200  0.812200  1.0  0.1167
  H  H263  1  0.590800  0.838600  0.002500  1.0  0.1132
  H  H264  1  0.576200  0.908200  0.038000  1.0  0.1097
  H  H265  1  0.373000  0.835400  0.011800  1.0  0.1124
  H  H266  1  0.387600  0.765800  0.976300  1.0  0.106
  H  H267  1  0.446200  0.229800  0.728500  1.0  0.1175
  H  H268  1  0.442400  0.304400  0.764400  1.0  0.1101
  H  H269  1  0.645700  0.423600  0.749200  1.0  0.1191
  H  H270  1  0.649300  0.348800  0.713400  1.0  0.1186
  H  H271  1  0.568200  0.172400  0.019300  1.0  0.1077
  H  H272  1  0.575300  0.246400  0.983700  1.0  0.1163
  H  H273  1  0.366400  0.183200  0.988100  1.0  0.1145
  H  H274  1  0.359400  0.109400  0.023700  1.0  0.1064
  H  H275  1  0.383400  0.219200  0.938600  1.0  0.1176
  H  H276  1  0.397800  0.294600  0.902600  1.0  0.11
  H  H277  1  0.584200  0.415800  0.942200  1.0  0.1169
  H  H278  1  0.569700  0.340400  0.978200  1.0  0.1057
  H  H279  1  0.484100  0.457600  0.954200  1.0  0.1377
  H  H280  1  0.504800  0.300800  0.865700  1.0  0.1103
  H  H281  1  0.516500  0.575800  0.955300  1.0  0.128
  H  H282  1  0.567500  0.577800  0.725800  1.0  0.1247
  H  H283  1  0.461800  0.776800  0.694600  1.0  0.1178
  H  H284  1  0.462600  0.846000  0.657600  1.0  0.1072
  H  H285  1  0.670600  0.910000  0.647900  1.0  0.0893
  H  H286  1  0.669800  0.840800  0.684900  1.0  0.1127
  H  H287  1  0.561500  0.470800  0.725700  1.0  0.1189
  H  H288  1  0.529400  0.735600  0.869800  1.0  0.128
  H  H289  1  0.663800  0.702000  0.748600  1.0  0.1202
  H  H290  1  0.663300  0.767400  0.710000  1.0  0.1168
  H  H291  1  0.467800  0.734200  0.732800  1.0  0.1168
  H  H292  1  0.468200  0.668600  0.771400  1.0  0.1164
  H  H293  1  0.413300  0.608200  0.930300  1.0  0.1156
  H  H294  1  0.399400  0.676000  0.967200  1.0  0.1135
  H  H295  1  0.601200  0.806200  0.957700  1.0  0.1195
  H  H296  1  0.615000  0.738400  0.920800  1.0  0.1061
  H  H297  1  0.663000  0.114200  0.147600  1.0  0.1047
  H  H298  1  0.743300  0.190200  0.182300  1.0  0.1033
  H  H299  1  0.610100  0.265800  0.197100  1.0  0.1096
  H  H300  1  0.529800  0.189800  0.162300  1.0  0.0957
  H  H301  1  0.773000  0.308400  0.310600  1.0  0.1302
  H  H302  1  0.198300  0.730200  0.312200  1.0  0.1156
  H  H303  1  0.247800  0.838600  0.502500  1.0  0.1135
  H  H304  1  0.332000  0.908200  0.538000  1.0  0.1104
  H  H305  1  0.462400  0.835400  0.511800  1.0  0.1117
  H  H306  1  0.378200  0.765800  0.476300  1.0  0.1059
  H  H307  1  0.783600  0.229800  0.228500  1.0  0.1176
  H  H308  1  0.862000  0.304400  0.264400  1.0  0.1099
  H  H309  1  0.777900  0.423600  0.249200  1.0  0.1195
  H  H310  1  0.699500  0.348800  0.213400  1.0  0.1186
  H  H311  1  0.604200  0.172400  0.519300  1.0  0.1063
  H  H312  1  0.671100  0.246400  0.483700  1.0  0.1164
  H  H313  1  0.816800  0.183200  0.488100  1.0  0.1141
  H  H314  1  0.750000  0.109400  0.523700  1.0  0.1067
  H  H315  1  0.835800  0.219200  0.438600  1.0  0.118
  H  H316  1  0.896800  0.294600  0.402600  1.0  0.1098
  H  H317  1  0.831600  0.415800  0.442200  1.0  0.1169
  H  H318  1  0.770700  0.340400  0.478200  1.0  0.1056
  H  H319  1  0.973500  0.457600  0.454200  1.0  0.1376
  H  H320  1  0.796000  0.300800  0.365700  1.0  0.1108
  H  H321  1  0.059300  0.575800  0.455300  1.0  0.1277
  H  H322  1  0.010300  0.577800  0.225800  1.0  0.1246
  H  H323  1  0.315000  0.776800  0.194600  1.0  0.1175
  H  H324  1  0.383400  0.846000  0.157600  1.0  0.1073
  H  H325  1  0.239400  0.910000  0.147900  1.0  0.089
  H  H326  1  0.171000  0.840800  0.184900  1.0  0.1121
  H  H327  1  0.909300  0.470800  0.225700  1.0  0.1192
  H  H328  1  0.206200  0.735600  0.369800  1.0  0.1274
  H  H329  1  0.038200  0.702000  0.248600  1.0  0.1198
  H  H330  1  0.104100  0.767400  0.210000  1.0  0.1162
  H  H331  1  0.266400  0.734200  0.232800  1.0  0.1185
  H  H332  1  0.200400  0.668600  0.271400  1.0  0.1159
  H  H333  1  0.194900  0.608200  0.430300  1.0  0.1161
  H  H334  1  0.276600  0.676000  0.467200  1.0  0.1131
  H  H335  1  0.205000  0.806200  0.457700  1.0  0.1199
  H  H336  1  0.123400  0.738400  0.420800  1.0  0.106
  C  C337  1  0.229000  0.668600  0.960400  1.0  0.6584
  C  C338  1  0.261600  0.952400  0.771000  1.0  0.0192
  C  C339  1  0.350200  0.502000  0.530700  1.0  0.6288
  C  C340  1  0.272300  0.899200  0.760500  1.0  -0.1252
  C  C341  1  0.287400  0.206400  0.768600  1.0  0.2168
  C  C342  1  0.258800  0.028600  0.809700  1.0  0.2387
  C  C343  1  0.280900  0.191200  0.799400  1.0  -0.1069
  C  C344  1  0.258100  0.751800  0.582700  1.0  -0.1264
  C  C345  1  0.267020  0.709840  0.562020  1.0  -0.011
  C  C346  1  0.331630  0.710460  0.559790  1.0  -0.1205
  C  C347  1  0.387300  0.753000  0.578200  1.0  -0.056
  C  C348  1  0.378500  0.795000  0.598850  1.0  -0.1575
  C  C349  1  0.313900  0.794400  0.601080  1.0  0.0434
  C  C350  1  0.270800  0.129800  0.809400  1.0  -0.0421
  C  C351  1  0.276800  0.236000  0.822770  1.0  0.0556
  C  C352  1  0.334000  0.294800  0.829400  1.0  -0.0953
  C  C353  1  0.328700  0.337400  0.850900  1.0  -0.1214
  C  C354  1  0.266300  0.321200  0.865720  1.0  0.0465
  C  C355  1  0.209000  0.262400  0.859100  1.0  -0.1378
  C  C356  1  0.214350  0.219900  0.837600  1.0  -0.127
  C  C357  1  0.260300  0.368400  0.888800  1.0  0.0444
  C  C358  1  0.318800  0.410000  0.906100  1.0  -0.1248
  C  C359  1  0.314600  0.454200  0.926800  1.0  -0.0227
  C  C360  1  0.251800  0.456800  0.930300  1.0  -0.1301
  C  C361  1  0.193400  0.415400  0.913100  1.0  -0.0297
  C  C362  1  0.197500  0.371000  0.892300  1.0  -0.1295
  C  C363  1  0.301000  0.266600  0.728000  1.0  -0.1467
  C  C364  1  0.300100  0.032600  0.680400  1.0  0.0933
  C  C365  1  0.344500  0.666667  0.536200  1.0  0.6336
  C  C366  1  0.294100  0.267200  0.758900  1.0  -0.1554
  C  C367  1  0.302600  0.050800  0.648300  1.0  -0.1455
  C  C368  1  0.258500  0.973600  0.799800  1.0  0.0076
  C  C369  1  0.300400  0.127400  0.677900  1.0  0.1885
  C  C370  1  0.315800  0.236200  0.665800  1.0  0.0104
  C  C371  1  0.379000  0.288600  0.660000  1.0  -0.1241
  C  C372  1  0.382900  0.328800  0.636900  1.0  -0.1348
  C  C373  1  0.323800  0.316800  0.619600  1.0  0.0212
  C  C374  1  0.260600  0.264400  0.625400  1.0  -0.1271
  C  C375  1  0.256600  0.224200  0.648500  1.0  -0.127
  C  C376  1  0.303800  0.184800  0.688900  1.0  -0.0741
  C  C377  1  0.275600  0.956800  0.721200  1.0  0.2451
  C  C378  1  0.247500  0.847400  0.869500  1.0  0.0296
  C  C379  1  0.311300  0.898800  0.863300  1.0  -0.1425
  C  C380  1  0.315200  0.940000  0.840800  1.0  -0.1441
  C  C381  1  0.255500  0.930200  0.824500  1.0  0.0378
  C  C382  1  0.191800  0.879000  0.830700  1.0  -0.1305
  C  C383  1  0.187900  0.837600  0.853200  1.0  -0.1335
  C  C384  1  0.275500  0.896600  0.728700  1.0  -0.1576
  C  C385  1  0.299900  0.205400  0.718200  1.0  0.1748
  C  C386  1  0.263900  0.109200  0.840700  1.0  -0.1484
  C  C387  1  0.303700  0.109400  0.647300  1.0  -0.0805
  C  C388  1  0.303800  0.841400  0.623530  1.0  0.0395
  C  C389  1  0.359600  0.901200  0.629600  1.0  -0.1529
  C  C390  1  0.352910  0.943820  0.650600  1.0  -0.1009
  C  C391  1  0.290200  0.926600  0.665440  1.0  0.0705
  C  C392  1  0.234400  0.866800  0.659300  1.0  -0.0752
  C  C393  1  0.241150  0.824100  0.638400  1.0  -0.1231
  C  C394  1  0.282800  0.970600  0.689500  1.0  -0.0501
  C  C395  1  0.292700  0.745600  0.919400  1.0  -0.0389
  C  C396  1  0.231800  0.712400  0.935200  1.0  -0.1361
  C  C397  1  0.174200  0.722600  0.929900  1.0  -0.0548
  C  C398  1  0.177600  0.766200  0.908800  1.0  -0.1363
  C  C399  1  0.238700  0.799600  0.892900  1.0  0.032
  C  C400  1  0.296300  0.789400  0.898200  1.0  -0.1441
  C  C401  1  0.399500  0.405000  0.583500  1.0  -0.1218
  C  C402  1  0.334700  0.365000  0.595000  1.0  0.0191
  C  C403  1  0.275300  0.368000  0.584700  1.0  -0.1269
  C  C404  1  0.280800  0.411200  0.562900  1.0  -0.0286
  C  C405  1  0.345600  0.451200  0.551400  1.0  -0.1471
  C  C406  1  0.405000  0.448200  0.561700  1.0  -0.0485
  C  C407  1  0.259900  0.051800  0.840300  1.0  -0.1298
  C  C408  1  0.247000  0.504800  0.952300  1.0  0.6309
  C  C409  1  0.439600  0.668600  0.460400  1.0  0.658
  C  C410  1  0.690800  0.952400  0.271000  1.0  0.0202
  C  C411  1  0.151800  0.502000  0.030700  1.0  0.6306
  C  C412  1  0.626900  0.899200  0.260500  1.0  -0.125
  C  C413  1  0.919000  0.206400  0.268600  1.0  0.2167
  C  C414  1  0.769800  0.028600  0.309700  1.0  0.2352
  C  C415  1  0.910300  0.191200  0.299400  1.0  -0.107
  C  C416  1  0.493700  0.751800  0.082700  1.0  -0.1266
  C  C417  1  0.442820  0.709840  0.062020  1.0  -0.0131
  C  C418  1  0.378830  0.710460  0.059790  1.0  -0.1207
  C  C419  1  0.365700  0.753000  0.078200  1.0  -0.0536
  C  C420  1  0.416500  0.795000  0.098850  1.0  -0.1579
  C  C421  1  0.480500  0.794400  0.101080  1.0  0.0441
  C  C422  1  0.859000  0.129800  0.309400  1.0  -0.0418
  C  C423  1  0.959200  0.236000  0.322770  1.0  0.0558
  C  C424  1  0.960800  0.294800  0.329400  1.0  -0.0951
  C  C425  1  0.008700  0.337400  0.350900  1.0  -0.1211
  C  C426  1  0.054900  0.321200  0.365720  1.0  0.0466
  C  C427  1  0.053400  0.262400  0.359100  1.0  -0.1381
  C  C428  1  0.005550  0.219900  0.337600  1.0  -0.1266
  C  C429  1  0.108100  0.368400  0.388800  1.0  0.0441
  C  C430  1  0.091200  0.410000  0.406100  1.0  -0.1245
  C  C431  1  0.139600  0.454200  0.426800  1.0  -0.0232
  C  C432  1  0.205000  0.456800  0.430300  1.0  -0.1302
  C  C433  1  0.222000  0.415400  0.413100  1.0  -0.0293
  C  C434  1  0.173500  0.371000  0.392300  1.0  -0.1292
  C  C435  1  0.965600  0.266600  0.228000  1.0  -0.1462
  C  C436  1  0.732500  0.032600  0.180400  1.0  0.0941
  C  C437  1  0.322100  0.666667  0.036200  1.0  0.6345
  C  C438  1  0.973100  0.267200  0.258900  1.0  -0.1559
  C  C439  1  0.748200  0.050800  0.148300  1.0  -0.1445
  C  C440  1  0.715100  0.973600  0.299800  1.0  0.0072
  C  C441  1  0.827000  0.127400  0.177900  1.0  0.189
  C  C442  1  0.920400  0.236200  0.165800  1.0  0.0099
  C  C443  1  0.909600  0.288600  0.160000  1.0  -0.1241
  C  C444  1  0.945900  0.328800  0.136900  1.0  -0.1344
  C  C445  1  0.993000  0.316800  0.119600  1.0  0.0204
  C  C446  1  0.003800  0.264400  0.125400  1.0  -0.1271
  C  C447  1  0.967600  0.224200  0.148500  1.0  -0.1234
  C  C448  1  0.881000  0.184800  0.188900  1.0  -0.0748
  C  C449  1  0.681200  0.956800  0.221200  1.0  0.2453
  C  C450  1  0.599900  0.847400  0.369500  1.0  0.0293
  C  C451  1  0.587500  0.898800  0.363300  1.0  -0.143
  C  C452  1  0.624800  0.940000  0.340800  1.0  -0.1452
  C  C453  1  0.674700  0.930200  0.324500  1.0  0.0387
  C  C454  1  0.687200  0.879000  0.330700  1.0  -0.1309
  C  C455  1  0.649700  0.837600  0.353200  1.0  -0.1326
  C  C456  1  0.621100  0.896600  0.228700  1.0  -0.1576
  C  C457  1  0.905500  0.205400  0.218200  1.0  0.1754
  C  C458  1  0.845300  0.109200  0.340700  1.0  -0.1482
  C  C459  1  0.805700  0.109400  0.147300  1.0  -0.0809
  C  C460  1  0.537600  0.841400  0.123530  1.0  0.0392
  C  C461  1  0.541600  0.901200  0.129600  1.0  -0.153
  C  C462  1  0.590910  0.943820  0.150600  1.0  -0.0999
  C  C463  1  0.636400  0.926600  0.165440  1.0  0.0702
  C  C464  1  0.632400  0.866800  0.159300  1.0  -0.0751
  C  C465  1  0.582950  0.824100  0.138400  1.0  -0.1231
  C  C466  1  0.687800  0.970600  0.189500  1.0  -0.0488
  C  C467  1  0.452900  0.745600  0.419400  1.0  -0.0411
  C  C468  1  0.480600  0.712400  0.435200  1.0  -0.1369
  C  C469  1  0.548400  0.722600  0.429900  1.0  -0.0532
  C  C470  1  0.588600  0.766200  0.408800  1.0  -0.1351
  C  C471  1  0.560900  0.799600  0.392900  1.0  0.0324
  C  C472  1  0.493100  0.789400  0.398200  1.0  -0.1431
  C  C473  1  0.005500  0.405000  0.083500  1.0  -0.1238
  C  C474  1  0.030300  0.365000  0.095000  1.0  0.0195
  C  C475  1  0.092700  0.368000  0.084700  1.0  -0.1288
  C  C476  1  0.130400  0.411200  0.062900  1.0  -0.0274
  C  C477  1  0.105600  0.451200  0.051400  1.0  -0.1475
  C  C478  1  0.043200  0.448200  0.061700  1.0  -0.0489
  C  C479  1  0.791900  0.051800  0.340300  1.0  -0.1299
  C  C480  1  0.257800  0.504800  0.452300  1.0  0.6311
  C  C481  1  0.078200  0.546200  0.554300  1.0  0.2359
  C  C482  1  0.030700  0.540000  0.684800  1.0  0.1744
  C  C483  1  0.081550  0.742500  0.538790  1.0  0.0662
  C  C484  1  0.038020  0.722240  0.512900  1.0  -0.0932
  C  C485  1  0.044700  0.765400  0.490910  1.0  -0.1781
  C  C486  1  0.094600  0.828600  0.494720  1.0  0.0791
  C  C487  1  0.138160  0.848920  0.520600  1.0  -0.1014
  C  C488  1  0.131500  0.805800  0.542600  1.0  -0.098
  C  C489  1  0.077400  0.639600  0.553100  1.0  0.0738
  C  C490  1  0.014800  0.009400  0.827900  1.0  0.7263
  C  C491  1  0.075500  0.697600  0.563100  1.0  -0.0099
  C  C492  1  0.058100  0.466200  0.594900  1.0  0.1303
  C  C493  1  0.056400  0.412200  0.636200  1.0  -0.151
  C  C494  1  0.065400  0.412800  0.605500  1.0  -0.1538
  C  C495  1  0.059800  0.715200  0.592900  1.0  0.0934
  C  C496  1  0.049600  0.468200  0.645100  1.0  0.0437
  C  C497  1  0.143700  0.253000  0.452200  1.0  -0.0632
  C  C498  1  0.142400  0.298200  0.473200  1.0  -0.1379
  C  C499  1  0.082700  0.306400  0.475870  1.0  0.0407
  C  C500  1  0.024300  0.269400  0.457400  1.0  -0.1476
  C  C501  1  0.025700  0.224400  0.436370  1.0  -0.0175
  C  C502  1  0.085370  0.216140  0.433730  1.0  -0.174
  C  C503  1  0.045200  0.769600  0.631800  1.0  -0.1423
  C  C504  1  0.067800  0.487600  0.564700  1.0  -0.0629
  C  C505  1  0.044400  0.712400  0.642900  1.0  -0.0164
  C  C506  1  0.096700  0.568600  0.523300  1.0  -0.1871
  C  C507  1  0.101200  0.627800  0.524400  1.0  -0.1442
  C  C508  1  0.954500  0.871000  0.769900  1.0  -0.1469
  C  C509  1  0.018400  0.873200  0.762800  1.0  0.0324
  C  C510  1  0.079500  0.920600  0.776300  1.0  -0.1213
  C  C511  1  0.076800  0.965600  0.796900  1.0  -0.0926
  C  C512  1  0.012900  0.963400  0.804100  1.0  -0.1411
  C  C513  1  0.951800  0.916200  0.790600  1.0  -0.0497
  C  C514  1  0.090900  0.869000  0.470190  1.0  0.026
  C  C515  1  0.153800  0.915400  0.459600  1.0  -0.1508
  C  C516  1  0.153860  0.958320  0.438700  1.0  -0.0613
  C  C517  1  0.091200  0.955000  0.428560  1.0  -0.1175
  C  C518  1  0.028400  0.908800  0.439200  1.0  -0.0323
  C  C519  1  0.028300  0.865800  0.460000  1.0  -0.1469
  C  C520  1  0.036900  0.637000  0.684700  1.0  0.077
  C  C521  1  0.031800  0.483200  0.676200  1.0  -0.0711
  C  C522  1  0.079020  0.352240  0.498840  1.0  0.0476
  C  C523  1  0.138900  0.409000  0.505660  1.0  -0.1321
  C  C524  1  0.136500  0.453600  0.526710  1.0  -0.1184
  C  C525  1  0.074310  0.441620  0.540930  1.0  0.0683
  C  C526  1  0.014500  0.385000  0.534110  1.0  -0.129
  C  C527  1  0.016830  0.340260  0.513100  1.0  -0.1269
  C  C528  1  0.967050  0.335100  0.721300  1.0  -0.124
  C  C529  1  0.972600  0.378400  0.699580  1.0  -0.0877
  C  C530  1  0.029100  0.439000  0.700670  1.0  0.0635
  C  C531  1  0.080100  0.456200  0.723500  1.0  -0.1222
  C  C532  1  0.074600  0.413000  0.745280  1.0  -0.1545
  C  C533  1  0.018100  0.352400  0.744200  1.0  0.023
  C  C534  1  0.053300  0.771600  0.601500  1.0  -0.1769
  C  C535  1  0.031700  0.692000  0.674400  1.0  -0.0824
  C  C536  1  0.028100  0.618800  0.715500  1.0  -0.1731
  C  C537  1  0.014300  0.303000  0.764930  1.0  0.0222
  C  C538  1  0.949700  0.253400  0.771500  1.0  -0.1675
  C  C539  1  0.945000  0.208600  0.792200  1.0  -0.0536
  C  C540  1  0.005000  0.213400  0.806410  1.0  -0.1301
  C  C541  1  0.069700  0.263200  0.799900  1.0  -0.0613
  C  C542  1  0.074300  0.307800  0.779100  1.0  -0.1473
  C  C543  1  0.024300  0.738800  0.696000  1.0  0.0629
  C  C544  1  0.967400  0.751400  0.696900  1.0  -0.1142
  C  C545  1  0.964700  0.793800  0.719200  1.0  -0.1422
  C  C546  1  0.018900  0.823600  0.740620  1.0  0.0165
  C  C547  1  0.075800  0.810800  0.739700  1.0  -0.1356
  C  C548  1  0.078500  0.768400  0.717400  1.0  -0.1662
  C  C549  1  0.023900  0.559200  0.714900  1.0  -0.0752
  C  C550  1  0.000600  0.166000  0.830700  1.0  0.6298
  C  C551  1  0.086600  0.167000  0.412800  1.0  0.6693
  C  C552  1  0.084700  0.999800  0.405700  1.0  0.6871
  C  C553  1  0.468000  0.546200  0.054300  1.0  0.2358
  C  C554  1  0.509300  0.540000  0.184800  1.0  0.1747
  C  C555  1  0.660950  0.742500  0.038790  1.0  0.0672
  C  C556  1  0.684220  0.722240  0.012900  1.0  -0.0929
  C  C557  1  0.720700  0.765400  0.990910  1.0  -0.1785
  C  C558  1  0.734000  0.828600  0.994720  1.0  0.079
  C  C559  1  0.710760  0.848920  0.020600  1.0  -0.0999
  C  C560  1  0.674300  0.805800  0.042600  1.0  -0.0968
  C  C561  1  0.562200  0.639600  0.053100  1.0  0.0739
  C  C562  1  0.994600  0.009400  0.327900  1.0  0.7265
  C  C563  1  0.622100  0.697600  0.063100  1.0  -0.0104
  C  C564  1  0.408100  0.466200  0.094900  1.0  0.1301
  C  C565  1  0.355800  0.412200  0.136200  1.0  -0.1529
  C  C566  1  0.347400  0.412800  0.105500  1.0  -0.153
  C  C567  1  0.655400  0.715200  0.092900  1.0  0.0923
  C  C568  1  0.418600  0.468200  0.145100  1.0  0.0453
  C  C569  1  0.109300  0.253000  0.952200  1.0  -0.0643
  C  C570  1  0.155800  0.298200  0.973200  1.0  -0.1376
  C  C571  1  0.223700  0.306400  0.975870  1.0  0.0408
  C  C572  1  0.245100  0.269400  0.957400  1.0  -0.1453
  C  C573  1  0.198700  0.224400  0.936370  1.0  -0.0191
  C  C574  1  0.130770  0.216140  0.933730  1.0  -0.1749
  C  C575  1  0.724400  0.769600  0.131800  1.0  -0.1399
  C  C576  1  0.419800  0.487600  0.064700  1.0  -0.0625
  C  C577  1  0.668000  0.712400  0.142900  1.0  -0.0158
  C  C578  1  0.471900  0.568600  0.023300  1.0  -0.1874
  C  C579  1  0.526600  0.627800  0.024400  1.0  -0.144
  C  C580  1  0.916500  0.871000  0.269900  1.0  -0.147
  C  C581  1  0.854800  0.873200  0.262800  1.0  0.0321
  C  C582  1  0.841100  0.920600  0.276300  1.0  -0.1219
  C  C583  1  0.888800  0.965600  0.296900  1.0  -0.093
  C  C584  1  0.950500  0.963400  0.304100  1.0  -0.1411
  C  C585  1  0.964400  0.916200  0.290600  1.0  -0.0512
  C  C586  1  0.778100  0.869000  0.970190  1.0  0.0259
  C  C587  1  0.761600  0.915400  0.959600  1.0  -0.1508
  C  C588  1  0.804460  0.958320  0.938700  1.0  -0.0617
  C  C589  1  0.863800  0.955000  0.928560  1.0  -0.1177
  C  C590  1  0.880400  0.908800  0.939200  1.0  -0.0327
  C  C591  1  0.837500  0.865800  0.960000  1.0  -0.1467
  C  C592  1  0.600100  0.637000  0.184700  1.0  0.0769
  C  C593  1  0.451400  0.483200  0.176200  1.0  -0.0707
  C  C594  1  0.273220  0.352240  0.998840  1.0  0.0477
  C  C595  1  0.270100  0.409000  0.005660  1.0  -0.1312
  C  C596  1  0.317100  0.453600  0.026710  1.0  -0.1177
  C  C597  1  0.367310  0.441620  0.040930  1.0  0.0669
  C  C598  1  0.370500  0.385000  0.034110  1.0  -0.1305
  C  C599  1  0.323430  0.340260  0.013100  1.0  -0.1275
  C  C600  1  0.368050  0.335100  0.221300  1.0  -0.1253
  C  C601  1  0.405800  0.378400  0.199580  1.0  -0.0878
  C  C602  1  0.409900  0.439000  0.200670  1.0  0.0641
  C  C603  1  0.376100  0.456200  0.223500  1.0  -0.1231
  C  C604  1  0.338400  0.413000  0.245280  1.0  -0.1554
  C  C605  1  0.334300  0.352400  0.244200  1.0  0.0248
  C  C606  1  0.718300  0.771600  0.101500  1.0  -0.1777
  C  C607  1  0.660300  0.692000  0.174400  1.0  -0.0817
  C  C608  1  0.590700  0.618800  0.215500  1.0  -0.172
  C  C609  1  0.288700  0.303000  0.264930  1.0  0.024
  C  C610  1  0.303700  0.253400  0.271500  1.0  -0.1703
  C  C611  1  0.263600  0.208600  0.292200  1.0  -0.0536
  C  C612  1  0.208400  0.213400  0.306410  1.0  -0.1306
  C  C613  1  0.193500  0.263200  0.299900  1.0  -0.0612
  C  C614  1  0.233500  0.307800  0.279100  1.0  -0.148
  C  C615  1  0.714500  0.738800  0.196000  1.0  0.0629
  C  C616  1  0.784000  0.751400  0.196900  1.0  -0.1093
  C  C617  1  0.829100  0.793800  0.219200  1.0  -0.1421
  C  C618  1  0.804700  0.823600  0.240620  1.0  0.0153
  C  C619  1  0.735000  0.810800  0.239700  1.0  -0.1344
  C  C620  1  0.689900  0.768400  0.217400  1.0  -0.1657
  C  C621  1  0.535300  0.559200  0.214900  1.0  -0.0752
  C  C622  1  0.165400  0.166000  0.330700  1.0  0.629
  C  C623  1  0.080400  0.167000  0.912800  1.0  0.6693
  C  C624  1  0.915100  0.999800  0.905700  1.0  0.6875
  C  C625  1  0.778900  0.025800  0.745900  1.0  0.0143
  C  C626  1  0.803200  0.173800  0.620800  1.0  0.1197
  C  C627  1  0.770900  0.078000  0.753900  1.0  0.285
  C  C628  1  0.767000  0.721600  0.899600  1.0  0.5385
  C  C629  1  0.782000  0.003800  0.714900  1.0  0.1092
  C  C630  1  0.759400  0.167400  0.751800  1.0  0.0411
  C  C631  1  0.798300  0.310800  0.671600  1.0  -0.1832
  C  C632  1  0.792400  0.307200  0.702000  1.0  -0.1197
  C  C633  1  0.771300  0.552000  0.900200  1.0  0.6465
  C  C634  1  0.790400  0.950200  0.706200  1.0  -0.1247
  C  C635  1  0.768000  0.857400  0.838500  1.0  0.0352
  C  C636  1  0.830400  0.865800  0.851700  1.0  -0.1509
  C  C637  1  0.830800  0.821600  0.871700  1.0  -0.0246
  C  C638  1  0.768800  0.769200  0.878500  1.0  -0.0931
  C  C639  1  0.706200  0.760600  0.865300  1.0  -0.092
  C  C640  1  0.705900  0.804800  0.845300  1.0  -0.2008
  C  C641  1  0.805400  0.010600  0.662700  1.0  0.0017
  C  C642  1  0.805000  0.232600  0.632000  1.0  -0.1105
  C  C643  1  0.801100  0.080400  0.622000  1.0  0.2616
  C  C644  1  0.762000  0.267000  0.770600  1.0  0.0242
  C  C645  1  0.814300  0.293000  0.793100  1.0  -0.1008
  C  C646  1  0.814000  0.337600  0.814700  1.0  -0.1463
  C  C647  1  0.761400  0.356200  0.813900  1.0  0.0475
  C  C648  1  0.709200  0.330200  0.791400  1.0  -0.1256
  C  C649  1  0.709500  0.285600  0.769800  1.0  -0.0777
  C  C650  1  0.745900  0.139800  0.781300  1.0  -0.0484
  C  C651  1  0.784700  0.252200  0.715200  1.0  0.1072
  C  C652  1  0.747900  0.085000  0.782700  1.0  -0.1643
  C  C653  1  0.819200  0.106000  0.592700  1.0  -0.0675
  C  C654  1  0.770100  0.229400  0.744300  1.0  -0.0742
  C  C655  1  0.716700  0.874400  0.789900  1.0  -0.1312
  C  C656  1  0.761300  0.897400  0.815300  1.0  0.0277
  C  C657  1  0.808700  0.961800  0.818400  1.0  -0.2209
  C  C658  1  0.811400  0.003000  0.796000  1.0  -0.114
  C  C659  1  0.766600  0.979800  0.770600  1.0  0.0447
  C  C660  1  0.719300  0.915600  0.767600  1.0  -0.0911
  C  C661  1  0.810600  0.156800  0.589800  1.0  -0.1678
  C  C662  1  0.809600  0.031000  0.633100  1.0  -0.071
  C  C663  1  0.809100  0.278200  0.607900  1.0  0.0724
  C  C664  1  0.866600  0.338000  0.607900  1.0  -0.0907
  C  C665  1  0.871000  0.380800  0.586100  1.0  -0.16
  C  C666  1  0.817900  0.363600  0.564200  1.0  0.0528
  C  C667  1  0.760400  0.303800  0.564200  1.0  -0.116
  C  C668  1  0.756000  0.261200  0.586100  1.0  -0.0928
  C  C669  1  0.830800  0.506200  0.865000  1.0  -0.0565
  C  C670  1  0.829700  0.459800  0.844100  1.0  -0.1481
  C  C671  1  0.766300  0.409200  0.834500  1.0  0.0474
  C  C672  1  0.704300  0.405400  0.845800  1.0  -0.1454
  C  C673  1  0.705500  0.451800  0.866700  1.0  -0.0467
  C  C674  1  0.768700  0.502200  0.876300  1.0  -0.1303
  C  C675  1  0.802500  0.254400  0.662100  1.0  0.1088
  C  C676  1  0.825500  0.897400  0.566900  1.0  0.0023
  C  C677  1  0.882600  0.939000  0.584900  1.0  -0.1191
  C  C678  1  0.876000  0.981400  0.606100  1.0  -0.1126
  C  C679  1  0.812300  0.982200  0.609200  1.0  0.0104
  C  C680  1  0.755100  0.940600  0.591200  1.0  -0.1489
  C  C681  1  0.761800  0.898200  0.570100  1.0  -0.1398
  C  C682  1  0.824000  0.408800  0.540400  1.0  0.0483
  C  C683  1  0.890800  0.452200  0.532400  1.0  -0.1566
  C  C684  1  0.900000  0.498600  0.511800  1.0  -0.0244
  C  C685  1  0.842400  0.501600  0.499300  1.0  -0.1326
  C  C686  1  0.775500  0.458200  0.507400  1.0  -0.0337
  C  C687  1  0.766300  0.411800  0.528000  1.0  -0.0703
  C  C688  1  0.850100  0.724600  0.478400  1.0  0.4387
  C  C689  1  0.846800  0.550200  0.477000  1.0  0.6091
  C  C690  1  0.795900  0.792400  0.497000  1.0  -0.0641
  C  C691  1  0.847000  0.772200  0.499400  1.0  -0.1571
  C  C692  1  0.894300  0.794200  0.523900  1.0  -0.0671
  C  C693  1  0.890500  0.836400  0.546000  1.0  -0.1417
  C  C694  1  0.839500  0.856600  0.543600  1.0  0.0258
  C  C695  1  0.792200  0.834600  0.519100  1.0  -0.196
  C  C696  1  0.813400  0.961400  0.677700  1.0  -0.0526
  C  C697  1  0.246900  0.025800  0.245900  1.0  0.014
  C  C698  1  0.370600  0.173800  0.120800  1.0  0.1195
  C  C699  1  0.307100  0.078000  0.253900  1.0  0.2855
  C  C700  1  0.954600  0.721600  0.399600  1.0  0.5381
  C  C701  1  0.221800  0.003800  0.214900  1.0  0.1098
  C  C702  1  0.408000  0.167400  0.251800  1.0  0.0434
  C  C703  1  0.512500  0.310800  0.171600  1.0  -0.1828
  C  C704  1  0.514800  0.307200  0.202000  1.0  -0.1205
  C  C705  1  0.780700  0.552000  0.400200  1.0  0.6309
  C  C706  1  0.159800  0.950200  0.206200  1.0  -0.126
  C  C707  1  0.089400  0.857400  0.338500  1.0  0.0354
  C  C708  1  0.035400  0.865800  0.351700  1.0  -0.1561
  C  C709  1  0.990800  0.821600  0.371700  1.0  -0.0277
  C  C710  1  0.000400  0.769200  0.378500  1.0  -0.093
  C  C711  1  0.054400  0.760600  0.365300  1.0  -0.0907
  C  C712  1  0.098900  0.804800  0.345300  1.0  -0.2002
  C  C713  1  0.205200  0.010600  0.162700  1.0  1e-04
  C  C714  1  0.427600  0.232600  0.132000  1.0  -0.1109
  C  C715  1  0.279300  0.080400  0.122000  1.0  0.26
  C  C716  1  0.505000  0.267000  0.270600  1.0  0.0247
  C  C717  1  0.478700  0.293000  0.293100  1.0  -0.1011
  C  C718  1  0.523600  0.337600  0.314700  1.0  -0.1491
  C  C719  1  0.594800  0.356200  0.313900  1.0  0.0477
  C  C720  1  0.621000  0.330200  0.291400  1.0  -0.1269
  C  C721  1  0.576100  0.285600  0.269800  1.0  -0.078
  C  C722  1  0.393900  0.139800  0.281300  1.0  -0.0473
  C  C723  1  0.467500  0.252200  0.215200  1.0  0.1068
  C  C724  1  0.337100  0.085000  0.282700  1.0  -0.1653
  C  C725  1  0.286800  0.106000  0.092700  1.0  -0.0691
  C  C726  1  0.459300  0.229400  0.244300  1.0  -0.0737
  C  C727  1  0.157700  0.874400  0.289900  1.0  -0.1301
  C  C728  1  0.136100  0.897400  0.315300  1.0  0.0267
  C  C729  1  0.153100  0.961800  0.318400  1.0  -0.2214
  C  C730  1  0.191600  0.003000  0.296000  1.0  -0.1126
  C  C731  1  0.213200  0.979800  0.270600  1.0  0.0445
  C  C732  1  0.196300  0.915600  0.267600  1.0  -0.0896
  C  C733  1  0.346200  0.156800  0.089800  1.0  -0.1669
  C  C734  1  0.221400  0.031000  0.133100  1.0  -0.071
  C  C735  1  0.469100  0.278200  0.107900  1.0  0.0732
  C  C736  1  0.471400  0.338000  0.107900  1.0  -0.0901
  C  C737  1  0.509800  0.380800  0.086100  1.0  -0.158
  C  C738  1  0.545700  0.363600  0.064200  1.0  0.0511
  C  C739  1  0.543400  0.303800  0.064200  1.0  -0.1168
  C  C740  1  0.505200  0.261200  0.086100  1.0  -0.0918
  C  C741  1  0.675400  0.506200  0.365000  1.0  -0.0575
  C  C742  1  0.630100  0.459800  0.344100  1.0  -0.1481
  C  C743  1  0.642900  0.409200  0.334500  1.0  0.0492
  C  C744  1  0.701100  0.405400  0.345800  1.0  -0.145
  C  C745  1  0.746300  0.451800  0.366700  1.0  -0.0478
  C  C746  1  0.733500  0.502200  0.376300  1.0  -0.1297
  C  C747  1  0.451900  0.254400  0.162100  1.0  0.1084
  C  C748  1  0.071900  0.897400  0.066900  1.0  0.0009
  C  C749  1  0.056400  0.939000  0.084900  1.0  -0.1208
  C  C750  1  0.105400  0.981400  0.106100  1.0  -0.1125
  C  C751  1  0.169900  0.982200  0.109200  1.0  0.0101
  C  C752  1  0.185500  0.940600  0.091200  1.0  -0.1481
  C  C753  1  0.136400  0.898200  0.070100  1.0  -0.1388
  C  C754  1  0.584800  0.408800  0.040400  1.0  0.0461
  C  C755  1  0.561400  0.452200  0.032400  1.0  -0.1556
  C  C756  1  0.598600  0.498600  0.011800  1.0  -0.0245
  C  C757  1  0.659200  0.501600  0.999300  1.0  -0.1335
  C  C758  1  0.682700  0.458200  0.007400  1.0  -0.035
  C  C759  1  0.645500  0.411800  0.028000  1.0  -0.0713
  C  C760  1  0.874500  0.724600  0.978400  1.0  0.4413
  C  C761  1  0.703400  0.550200  0.977000  1.0  0.6093
  C  C762  1  0.996500  0.792400  0.997000  1.0  -0.0648
  C  C763  1  0.925200  0.772200  0.999400  1.0  -0.156
  C  C764  1  0.899900  0.794200  0.023900  1.0  -0.0682
  C  C765  1  0.945900  0.836400  0.046000  1.0  -0.1416
  C  C766  1  0.017100  0.856600  0.043600  1.0  0.026
  C  C767  1  0.042400  0.834600  0.019100  1.0  -0.1948
  C  C768  1  0.148000  0.961400  0.177700  1.0  -0.0557
  C  C769  1  0.563900  0.573000  0.775400  1.0  0.026
  C  C770  1  0.555990  0.144780  0.651680  1.0  -0.1216
  C  C771  1  0.492680  0.144960  0.657610  1.0  -0.0451
  C  C772  1  0.490200  0.190200  0.678300  1.0  -0.1417
  C  C773  1  0.550920  0.235240  0.692980  1.0  -0.0292
  C  C774  1  0.614200  0.235000  0.687000  1.0  -0.1311
  C  C775  1  0.616700  0.189800  0.666400  1.0  -0.0315
  C  C776  1  0.463900  0.925400  0.051100  1.0  0.6381
  C  C777  1  0.516300  0.562400  0.905200  1.0  0.1618
  C  C778  1  0.527800  0.338200  0.823300  1.0  -0.1403
  C  C779  1  0.507900  0.469600  0.905900  1.0  0.1341
  C  C780  1  0.549600  0.476400  0.774400  1.0  0.276
  C  C781  1  0.533900  0.700000  0.825400  1.0  -0.1772
  C  C782  1  0.490500  0.795600  0.986060  1.0  0.0277
  C  C783  1  0.546600  0.838000  0.004400  1.0  -0.1251
  C  C784  1  0.538000  0.879400  0.025500  1.0  -0.0298
  C  C785  1  0.473300  0.878400  0.028300  1.0  -0.1165
  C  C786  1  0.417200  0.836000  0.009900  1.0  -0.0405
  C  C787  1  0.425900  0.794800  0.988830  1.0  -0.1595
  C  C788  1  0.456500  0.085800  0.048000  1.0  0.6659
  C  C789  1  0.548180  0.282360  0.717560  1.0  0.0114
  C  C790  1  0.486690  0.269180  0.732720  1.0  -0.1275
  C  C791  1  0.484500  0.313600  0.754030  1.0  -0.0938
  C  C792  1  0.543710  0.371020  0.760190  1.0  0.0729
  C  C793  1  0.605210  0.384220  0.745000  1.0  -0.1107
  C  C794  1  0.607300  0.339800  0.723720  1.0  -0.1327
  C  C795  1  0.463140  0.133880  0.024800  1.0  -0.1678
  C  C796  1  0.527200  0.174600  0.012900  1.0  -0.0329
  C  C797  1  0.531500  0.218600  0.991800  1.0  -0.1298
  C  C798  1  0.471490  0.221780  0.982510  1.0  0.0345
  C  C799  1  0.407400  0.181000  0.994400  1.0  -0.1317
  C  C800  1  0.403200  0.137200  0.015500  1.0  -0.0662
  C  C801  1  0.475110  0.272620  0.961820  1.0  0.0298
  C  C802  1  0.424120  0.259040  0.939360  1.0  -0.1321
  C  C803  1  0.432700  0.303800  0.917960  1.0  -0.0814
  C  C804  1  0.492350  0.362300  0.919030  1.0  0.0566
  C  C805  1  0.543440  0.375880  0.941500  1.0  -0.0929
  C  C806  1  0.534800  0.331000  0.962890  1.0  -0.156
  C  C807  1  0.529000  0.395400  0.815600  1.0  0.266
  C  C808  1  0.540500  0.644400  0.815700  1.0  0.1061
  C  C809  1  0.497600  0.485200  0.937500  1.0  -0.1795
  C  C810  1  0.513200  0.336000  0.853600  1.0  -0.0879
  C  C811  1  0.540700  0.418400  0.784500  1.0  -0.0633
  C  C812  1  0.511300  0.548000  0.938000  1.0  -0.1648
  C  C813  1  0.529600  0.625600  0.897400  1.0  -0.1379
  C  C814  1  0.512300  0.392000  0.864600  1.0  0.0755
  C  C815  1  0.531000  0.644600  0.865400  1.0  0.057
  C  C816  1  0.502300  0.409000  0.895300  1.0  0.0206
  C  C817  1  0.564300  0.553600  0.743100  1.0  -0.1624
  C  C818  1  0.565800  0.802400  0.693200  1.0  0.0457
  C  C819  1  0.504200  0.803800  0.685100  1.0  -0.1228
  C  C820  1  0.504700  0.845000  0.663120  1.0  -0.0976
  C  C821  1  0.566700  0.884600  0.649300  1.0  -0.1589
  C  C822  1  0.628200  0.883000  0.657400  1.0  -0.0351
  C  C823  1  0.627700  0.841800  0.679300  1.0  -0.1199
  C  C824  1  0.559300  0.495400  0.743000  1.0  -0.1799
  C  C825  1  0.560600  0.630600  0.787100  1.0  -0.0691
  C  C826  1  0.560200  0.098200  0.629800  1.0  0.594
  C  C827  1  0.531000  0.703000  0.856900  1.0  -0.1932
  C  C828  1  0.568900  0.931800  0.625700  1.0  0.6788
  C  C829  1  0.566050  0.679100  0.763650  1.0  0.0255
  C  C830  1  0.623900  0.708400  0.745400  1.0  -0.0784
  C  C831  1  0.623700  0.747400  0.722470  1.0  -0.1473
  C  C832  1  0.565500  0.757000  0.717750  1.0  0.0139
  C  C833  1  0.507500  0.727600  0.736000  1.0  -0.1413
  C  C834  1  0.507800  0.688600  0.758930  1.0  -0.1263
  C  C835  1  0.515500  0.667000  0.922050  1.0  0.0465
  C  C836  1  0.451420  0.648440  0.935800  1.0  -0.1272
  C  C837  1  0.443100  0.688600  0.957800  1.0  -0.1487
  C  C838  1  0.498900  0.747400  0.965920  1.0  0.0424
  C  C839  1  0.562980  0.765960  0.952100  1.0  -0.1201
  C  C840  1  0.571300  0.725800  0.930200  1.0  -0.0756
  C  C841  1  0.009100  0.573000  0.275400  1.0  0.0259
  C  C842  1  0.588790  0.144780  0.151680  1.0  -0.1227
  C  C843  1  0.652280  0.144960  0.157610  1.0  -0.0445
  C  C844  1  0.700000  0.190200  0.178300  1.0  -0.1419
  C  C845  1  0.684320  0.235240  0.192980  1.0  -0.0297
  C  C846  1  0.620800  0.235000  0.187000  1.0  -0.1309
  C  C847  1  0.573100  0.189800  0.166400  1.0  -0.0307
  C  C848  1  0.461500  0.925400  0.551100  1.0  0.6375
  C  C849  1  0.046100  0.562400  0.405200  1.0  0.162
  C  C850  1  0.810400  0.338200  0.323300  1.0  -0.1397
  C  C851  1  0.961700  0.469600  0.405900  1.0  0.1343
  C  C852  1  0.926800  0.476400  0.274400  1.0  0.2765
  C  C853  1  0.166100  0.700000  0.325400  1.0  -0.1733
  C  C854  1  0.305100  0.795600  0.486060  1.0  0.0271
  C  C855  1  0.291400  0.838000  0.504400  1.0  -0.1252
  C  C856  1  0.341400  0.879400  0.525500  1.0  -0.0314
  C  C857  1  0.405100  0.878400  0.528300  1.0  -0.1141
  C  C858  1  0.418800  0.836000  0.509900  1.0  -0.0379
  C  C859  1  0.368900  0.794800  0.488830  1.0  -0.1593
  C  C860  1  0.629300  0.085800  0.548000  1.0  0.6653
  C  C861  1  0.734180  0.282360  0.217560  1.0  0.0117
  C  C862  1  0.782490  0.269180  0.232720  1.0  -0.128
  C  C863  1  0.829100  0.313600  0.254030  1.0  -0.0931
  C  C864  1  0.827310  0.371020  0.260190  1.0  0.0722
  C  C865  1  0.779010  0.384220  0.245000  1.0  -0.1113
  C  C866  1  0.732500  0.339800  0.223720  1.0  -0.1319
  C  C867  1  0.670740  0.133880  0.524800  1.0  -0.1689
  C  C868  1  0.647400  0.174600  0.512900  1.0  -0.0335
  C  C869  1  0.687100  0.218600  0.491800  1.0  -0.1317
  C  C870  1  0.750290  0.221780  0.482510  1.0  0.0348
  C  C871  1  0.773600  0.181000  0.494400  1.0  -0.1312
  C  C872  1  0.734000  0.137200  0.515500  1.0  -0.0694
  C  C873  1  0.797510  0.272620  0.461820  1.0  0.0292
  C  C874  1  0.834920  0.259040  0.439360  1.0  -0.1325
  C  C875  1  0.871100  0.303800  0.417960  1.0  -0.0812
  C  C876  1  0.869950  0.362300  0.419030  1.0  0.0563
  C  C877  1  0.832440  0.375880  0.441500  1.0  -0.0953
  C  C878  1  0.796200  0.331000  0.462890  1.0  -0.1569
  C  C879  1  0.866400  0.395400  0.315600  1.0  0.2663
  C  C880  1  0.103900  0.644400  0.315700  1.0  0.1065
  C  C881  1  0.987600  0.485200  0.437500  1.0  -0.1798
  C  C882  1  0.822800  0.336000  0.353600  1.0  -0.0889
  C  C883  1  0.877700  0.418400  0.284500  1.0  -0.0632
  C  C884  1  0.036700  0.548000  0.438000  1.0  -0.1642
  C  C885  1  0.096000  0.625600  0.397400  1.0  -0.1385
  C  C886  1  0.879700  0.392000  0.364600  1.0  0.0751
  C  C887  1  0.113600  0.644600  0.365400  1.0  0.0562
  C  C888  1  0.906700  0.409000  0.395300  1.0  0.0208
  C  C889  1  0.989300  0.553600  0.243100  1.0  -0.1624
  C  C890  1  0.236600  0.802400  0.193200  1.0  0.046
  C  C891  1  0.299600  0.803800  0.185100  1.0  -0.122
  C  C892  1  0.340300  0.845000  0.163120  1.0  -0.0987
  C  C893  1  0.317900  0.884600  0.149300  1.0  -0.1605
  C  C894  1  0.254800  0.883000  0.157400  1.0  -0.0337
  C  C895  1  0.214100  0.841800  0.179300  1.0  -0.1202
  C  C896  1  0.936100  0.495400  0.243000  1.0  -0.18
  C  C897  1  0.070000  0.630600  0.287100  1.0  -0.0698
  C  C898  1  0.538000  0.098200  0.129800  1.0  0.5943
  C  C899  1  0.172000  0.703000  0.356900  1.0  -0.1911
  C  C900  1  0.362900  0.931800  0.125700  1.0  0.6783
  C  C901  1  0.113050  0.679100  0.263650  1.0  0.0246
  C  C902  1  0.084500  0.708400  0.245400  1.0  -0.0784
  C  C903  1  0.123700  0.747400  0.222470  1.0  -0.1463
  C  C904  1  0.191500  0.757000  0.217750  1.0  0.0149
  C  C905  1  0.220100  0.727600  0.236000  1.0  -0.1407
  C  C906  1  0.180800  0.688600  0.258930  1.0  -0.122
  C  C907  1  0.151500  0.667000  0.422050  1.0  0.045
  C  C908  1  0.197020  0.648440  0.435800  1.0  -0.1277
  C  C909  1  0.245500  0.688600  0.457800  1.0  -0.1471
  C  C910  1  0.248500  0.747400  0.465920  1.0  0.0423
  C  C911  1  0.202980  0.765960  0.452100  1.0  -0.1173
  C  C912  1  0.154500  0.725800  0.430200  1.0  -0.0792
  N  N913  1  0.267900  0.075000  0.790500  1.0  -0.3457
  N  N914  1  0.293900  0.080000  0.696900  1.0  -0.3948
  N  N915  1  0.292000  0.171200  0.744200  1.0  -0.3664
  N  N916  1  0.266600  0.988200  0.743400  1.0  -0.4145
  N  N917  1  0.807100  0.075000  0.290500  1.0  -0.3452
  N  N918  1  0.786100  0.080000  0.196900  1.0  -0.394
  N  N919  1  0.879200  0.171200  0.244200  1.0  -0.3672
  N  N920  1  0.721600  0.988200  0.243400  1.0  -0.4147
  N  N921  1  0.055000  0.678000  0.617300  1.0  -0.4143
  N  N922  1  0.068500  0.589000  0.570900  1.0  -0.3448
  N  N923  1  0.050800  0.503600  0.619400  1.0  -0.4755
  N  N924  1  0.040300  0.589200  0.666000  1.0  -0.3381
  N  N925  1  0.623000  0.678000  0.117300  1.0  -0.4145
  N  N926  1  0.520500  0.589000  0.070900  1.0  -0.3445
  N  N927  1  0.452800  0.503600  0.119400  1.0  -0.4766
  N  N928  1  0.548900  0.589200  0.166000  1.0  -0.3382
  N  N929  1  0.775600  0.123000  0.735600  1.0  -0.3436
  N  N930  1  0.798700  0.125800  0.640500  1.0  -0.4447
  N  N931  1  0.788600  0.039200  0.689100  1.0  -0.322
  N  N932  1  0.794300  0.222000  0.688600  1.0  -0.3724
  N  N933  1  0.347400  0.123000  0.235600  1.0  -0.344
  N  N934  1  0.327100  0.125800  0.140500  1.0  -0.4449
  N  N935  1  0.250600  0.039200  0.189100  1.0  -0.3224
  N  N936  1  0.427700  0.222000  0.188600  1.0  -0.3749
  N  N937  1  0.517800  0.517400  0.887500  1.0  -0.3198
  N  N938  1  0.524000  0.427400  0.840000  1.0  -0.2512
  N  N939  1  0.539100  0.610600  0.840300  1.0  -0.4094
  N  N940  1  0.552000  0.522600  0.791700  1.0  -0.1952
  N  N941  1  0.999600  0.517400  0.387500  1.0  -0.3198
  N  N942  1  0.903400  0.427400  0.340000  1.0  -0.2506
  N  N943  1  0.071500  0.610600  0.340300  1.0  -0.4105
  N  N944  1  0.970600  0.522600  0.291700  1.0  -0.1954
  O  O945  1  0.187400  0.506000  0.955800  1.0  -0.5977
  O  O946  1  0.282200  0.657400  0.960300  1.0  -0.5841
  O  O947  1  0.397700  0.664200  0.533900  1.0  -0.536
  O  O948  1  0.298700  0.507800  0.526700  1.0  -0.5561
  O  O949  1  0.176800  0.638000  0.974000  1.0  -0.5753
  O  O950  1  0.291100  0.631000  0.518900  1.0  -0.6029
  O  O951  1  0.402200  0.537800  0.520400  1.0  -0.5703
  O  O952  1  0.300900  0.540600  0.967700  1.0  -0.5791
  O  O953  1  0.318600  0.506000  0.455800  1.0  -0.5966
  O  O954  1  0.375200  0.657400  0.460300  1.0  -0.5817
  O  O955  1  0.266500  0.664200  0.033900  1.0  -0.5381
  O  O956  1  0.209100  0.507800  0.026700  1.0  -0.5574
  O  O957  1  0.461200  0.638000  0.474000  1.0  -0.5747
  O  O958  1  0.339900  0.631000  0.018900  1.0  -0.5969
  O  O959  1  0.135600  0.537800  0.020400  1.0  -0.5707
  O  O960  1  0.239700  0.540600  0.467700  1.0  -0.5784
  O  O961  1  0.141500  0.163800  0.408700  1.0  -0.579
  O  O962  1  0.032800  0.004800  0.402100  1.0  -0.5252
  O  O963  1  0.051800  0.162800  0.837700  1.0  -0.5442
  O  O964  1  0.065700  0.043400  0.843100  1.0  -0.5679
  O  O965  1  0.035100  0.132400  0.396200  1.0  -0.5955
  O  O966  1  0.141400  0.035400  0.392400  1.0  -0.5869
  O  O967  1  0.957400  0.011400  0.831100  1.0  -0.6034
  O  O968  1  0.936400  0.131600  0.841000  1.0  -0.6226
  O  O969  1  0.022300  0.163800  0.908700  1.0  -0.5832
  O  O970  1  0.972000  0.004800  0.902100  1.0  -0.5228
  O  O971  1  0.111000  0.162800  0.337700  1.0  -0.5436
  O  O972  1  0.977700  0.043400  0.343100  1.0  -0.5686
  O  O973  1  0.097300  0.132400  0.896200  1.0  -0.5955
  O  O974  1  0.894000  0.035400  0.892400  1.0  -0.5855
  O  O975  1  0.054000  0.011400  0.331100  1.0  -0.6051
  O  O976  1  0.195200  0.131600  0.341000  1.0  -0.6245
  O  O977  1  0.828700  0.592000  0.911900  1.0  -0.5438
  O  O978  1  0.822500  0.717000  0.904400  1.0  -0.6208
  O  O979  1  0.725100  0.690400  0.918400  1.0  -0.5931
  O  O980  1  0.715000  0.557200  0.904200  1.0  -0.5661
  O  O981  1  0.897100  0.710600  0.476700  1.0  -0.6088
  O  O982  1  0.791400  0.555400  0.469400  1.0  -0.6201
  O  O983  1  0.812200  0.698400  0.458100  1.0  -0.6037
  O  O984  1  0.906900  0.593200  0.467800  1.0  -0.5792
  O  O985  1  0.763300  0.592000  0.411900  1.0  -0.5439
  O  O986  1  0.894500  0.717000  0.404400  1.0  -0.6243
  O  O987  1  0.965300  0.690400  0.418400  1.0  -0.5944
  O  O988  1  0.842200  0.557200  0.404200  1.0  -0.5667
  O  O989  1  0.813500  0.710600  0.976700  1.0  -0.6064
  O  O990  1  0.764000  0.555400  0.969400  1.0  -0.614
  O  O991  1  0.886200  0.698400  0.958100  1.0  -0.6041
  O  O992  1  0.686300  0.593200  0.967800  1.0  -0.5782
  O  O993  1  0.406300  0.925000  0.052800  1.0  -0.5485
  O  O994  1  0.499100  0.058800  0.614700  1.0  -0.6315
  O  O995  1  0.619700  0.963800  0.611500  1.0  -0.6348
  O  O996  1  0.400100  0.053800  0.059700  1.0  -0.5372
  O  O997  1  0.513800  0.087200  0.055500  1.0  -0.6076
  O  O998  1  0.518100  0.961400  0.067400  1.0  -0.6154
  O  O999  1  0.611800  0.093000  0.624330  1.0  -0.529
  O  O1000  1  0.516200  0.939400  0.624700  1.0  -0.5716
  O  O1001  1  0.518700  0.925000  0.552800  1.0  -0.5474
  O  O1002  1  0.559700  0.058800  0.114700  1.0  -0.6312
  O  O1003  1  0.344100  0.963800  0.111500  1.0  -0.6355
  O  O1004  1  0.653700  0.053800  0.559700  1.0  -0.5371
  O  O1005  1  0.573400  0.087200  0.555500  1.0  -0.609
  O  O1006  1  0.443300  0.961400  0.567400  1.0  -0.6162
  O  O1007  1  0.481200  0.093000  0.124330  1.0  -0.5302
  O  O1008  1  0.423200  0.939400  0.124700  1.0  -0.5724
