# generated using pymatgen
data_TbH24(C11O2)4
_symmetry_space_group_name_H-M   'P 1'
_cell_length_a   33.00010000
_cell_length_b   33.00010000
_cell_length_c   33.00010000
_cell_angle_alpha   90.00000000
_cell_angle_beta   90.00000000
_cell_angle_gamma   90.00000000
_symmetry_Int_Tables_number   1
_chemical_formula_structural   TbH24(C11O2)4
_chemical_formula_sum   'Tb12 H288 C528 O96'
_cell_volume   35937.32670099
_cell_formula_units_Z   12
loop_
 _symmetry_equiv_pos_site_id
 _symmetry_equiv_pos_as_xyz
  1  'x, y, z'
loop_
 _atom_site_type_symbol
 _atom_site_label
 _atom_site_symmetry_multiplicity
 _atom_site_fract_x
 _atom_site_fract_y
 _atom_site_fract_z
 _atom_site_occupancy
 _atom_site_charge
  Tb  Tb1  1  0.000000  0.606020  0.000000  1.0  2.106
  Tb  Tb2  1  0.500000  0.106020  0.500000  1.0  2.106
  Tb  Tb3  1  0.000000  0.393980  0.000000  1.0  2.1051
  Tb  Tb4  1  0.500000  0.893980  0.500000  1.0  2.1051
  Tb  Tb5  1  0.000000  0.000000  0.606020  1.0  2.0958
  Tb  Tb6  1  0.500000  0.500000  0.106020  1.0  2.0958
  Tb  Tb7  1  0.000000  0.000000  0.393980  1.0  2.0968
  Tb  Tb8  1  0.500000  0.500000  0.893980  1.0  2.0968
  Tb  Tb9  1  0.606020  0.000000  0.000000  1.0  2.1064
  Tb  Tb10  1  0.106020  0.500000  0.500000  1.0  2.1064
  Tb  Tb11  1  0.393980  0.000000  0.000000  1.0  2.1062
  Tb  Tb12  1  0.893980  0.500000  0.500000  1.0  2.1062
  H  H13  1  0.190900  0.684300  0.181900  1.0  0.0958
  H  H14  1  0.181700  0.575300  0.110100  1.0  0.1197
  H  H15  1  0.122700  0.563700  0.073700  1.0  0.1287
  H  H16  1  0.092600  0.681100  0.085000  1.0  0.1205
  H  H17  1  0.151700  0.692700  0.121300  1.0  0.123
  H  H18  1  0.690900  0.184300  0.681900  1.0  0.0958
  H  H19  1  0.681700  0.075300  0.610100  1.0  0.1197
  H  H20  1  0.622700  0.063700  0.573700  1.0  0.1287
  H  H21  1  0.592600  0.181100  0.585000  1.0  0.1205
  H  H22  1  0.651700  0.192700  0.621300  1.0  0.123
  H  H23  1  0.809100  0.315700  0.181900  1.0  0.0963
  H  H24  1  0.818300  0.424700  0.110100  1.0  0.1198
  H  H25  1  0.877300  0.436300  0.073700  1.0  0.1293
  H  H26  1  0.907400  0.318900  0.085000  1.0  0.1196
  H  H27  1  0.848300  0.307300  0.121300  1.0  0.1237
  H  H28  1  0.309100  0.815700  0.681900  1.0  0.0963
  H  H29  1  0.318300  0.924700  0.610100  1.0  0.1198
  H  H30  1  0.377300  0.936300  0.573700  1.0  0.1293
  H  H31  1  0.407400  0.818900  0.585000  1.0  0.1196
  H  H32  1  0.348300  0.807300  0.621300  1.0  0.1237
  H  H33  1  0.809100  0.684300  0.818100  1.0  0.0972
  H  H34  1  0.818300  0.575300  0.889900  1.0  0.1195
  H  H35  1  0.877300  0.563700  0.926300  1.0  0.1284
  H  H36  1  0.907400  0.681100  0.915000  1.0  0.1195
  H  H37  1  0.848300  0.692700  0.878700  1.0  0.1236
  H  H38  1  0.309100  0.184300  0.318100  1.0  0.0972
  H  H39  1  0.318300  0.075300  0.389900  1.0  0.1195
  H  H40  1  0.377300  0.063700  0.426300  1.0  0.1284
  H  H41  1  0.407400  0.181100  0.415000  1.0  0.1195
  H  H42  1  0.348300  0.192700  0.378700  1.0  0.1236
  H  H43  1  0.190900  0.315700  0.818100  1.0  0.0968
  H  H44  1  0.181700  0.424700  0.889900  1.0  0.1201
  H  H45  1  0.122700  0.436300  0.926300  1.0  0.1286
  H  H46  1  0.092600  0.318900  0.915000  1.0  0.1191
  H  H47  1  0.151700  0.307300  0.878700  1.0  0.1236
  H  H48  1  0.690900  0.815700  0.318100  1.0  0.0968
  H  H49  1  0.681700  0.924700  0.389900  1.0  0.1201
  H  H50  1  0.622700  0.936300  0.426300  1.0  0.1286
  H  H51  1  0.592600  0.818900  0.415000  1.0  0.1191
  H  H52  1  0.651700  0.807300  0.378700  1.0  0.1236
  H  H53  1  0.181900  0.190900  0.684300  1.0  0.095
  H  H54  1  0.110100  0.181700  0.575300  1.0  0.1188
  H  H55  1  0.073700  0.122700  0.563700  1.0  0.1285
  H  H56  1  0.085000  0.092600  0.681100  1.0  0.1193
  H  H57  1  0.121300  0.151700  0.692700  1.0  0.1246
  H  H58  1  0.681900  0.690900  0.184300  1.0  0.095
  H  H59  1  0.610100  0.681700  0.075300  1.0  0.1188
  H  H60  1  0.573700  0.622700  0.063700  1.0  0.1285
  H  H61  1  0.585000  0.592600  0.181100  1.0  0.1193
  H  H62  1  0.621300  0.651700  0.192700  1.0  0.1246
  H  H63  1  0.181900  0.809100  0.315700  1.0  0.0962
  H  H64  1  0.110100  0.818300  0.424700  1.0  0.1193
  H  H65  1  0.073700  0.877300  0.436300  1.0  0.1287
  H  H66  1  0.085000  0.907400  0.318900  1.0  0.1187
  H  H67  1  0.121300  0.848300  0.307300  1.0  0.1233
  H  H68  1  0.681900  0.309100  0.815700  1.0  0.0962
  H  H69  1  0.610100  0.318300  0.924700  1.0  0.1193
  H  H70  1  0.573700  0.377300  0.936300  1.0  0.1287
  H  H71  1  0.585000  0.407400  0.818900  1.0  0.1187
  H  H72  1  0.621300  0.348300  0.807300  1.0  0.1233
  H  H73  1  0.818100  0.809100  0.684300  1.0  0.0951
  H  H74  1  0.889900  0.818300  0.575300  1.0  0.1186
  H  H75  1  0.926300  0.877300  0.563700  1.0  0.1289
  H  H76  1  0.915000  0.907400  0.681100  1.0  0.1187
  H  H77  1  0.878700  0.848300  0.692700  1.0  0.1239
  H  H78  1  0.318100  0.309100  0.184300  1.0  0.0951
  H  H79  1  0.389900  0.318300  0.075300  1.0  0.1186
  H  H80  1  0.426300  0.377300  0.063700  1.0  0.1289
  H  H81  1  0.415000  0.407400  0.181100  1.0  0.1187
  H  H82  1  0.378700  0.348300  0.192700  1.0  0.1239
  H  H83  1  0.818100  0.190900  0.315700  1.0  0.0956
  H  H84  1  0.889900  0.181700  0.424700  1.0  0.119
  H  H85  1  0.926300  0.122700  0.436300  1.0  0.1284
  H  H86  1  0.915000  0.092600  0.318900  1.0  0.1182
  H  H87  1  0.878700  0.151700  0.307300  1.0  0.1232
  H  H88  1  0.318100  0.690900  0.815700  1.0  0.0956
  H  H89  1  0.389900  0.681700  0.924700  1.0  0.119
  H  H90  1  0.426300  0.622700  0.936300  1.0  0.1284
  H  H91  1  0.415000  0.592600  0.818900  1.0  0.1182
  H  H92  1  0.378700  0.651700  0.807300  1.0  0.1232
  H  H93  1  0.684300  0.181900  0.190900  1.0  0.0977
  H  H94  1  0.575300  0.110100  0.181700  1.0  0.119
  H  H95  1  0.563700  0.073700  0.122700  1.0  0.1296
  H  H96  1  0.681100  0.085000  0.092600  1.0  0.119
  H  H97  1  0.692700  0.121300  0.151700  1.0  0.124
  H  H98  1  0.184300  0.681900  0.690900  1.0  0.0977
  H  H99  1  0.075300  0.610100  0.681700  1.0  0.119
  H  H100  1  0.063700  0.573700  0.622700  1.0  0.1296
  H  H101  1  0.181100  0.585000  0.592600  1.0  0.119
  H  H102  1  0.192700  0.621300  0.651700  1.0  0.124
  H  H103  1  0.315700  0.181900  0.809100  1.0  0.0969
  H  H104  1  0.424700  0.110100  0.818300  1.0  0.119
  H  H105  1  0.436300  0.073700  0.877300  1.0  0.1291
  H  H106  1  0.318900  0.085000  0.907400  1.0  0.119
  H  H107  1  0.307300  0.121300  0.848300  1.0  0.1245
  H  H108  1  0.815700  0.681900  0.309100  1.0  0.0969
  H  H109  1  0.924700  0.610100  0.318300  1.0  0.119
  H  H110  1  0.936300  0.573700  0.377300  1.0  0.1291
  H  H111  1  0.818900  0.585000  0.407400  1.0  0.119
  H  H112  1  0.807300  0.621300  0.348300  1.0  0.1245
  H  H113  1  0.684300  0.818100  0.809100  1.0  0.097
  H  H114  1  0.575300  0.889900  0.818300  1.0  0.119
  H  H115  1  0.563700  0.926300  0.877300  1.0  0.1291
  H  H116  1  0.681100  0.915000  0.907400  1.0  0.1191
  H  H117  1  0.692700  0.878700  0.848300  1.0  0.1244
  H  H118  1  0.184300  0.318100  0.309100  1.0  0.097
  H  H119  1  0.075300  0.389900  0.318300  1.0  0.119
  H  H120  1  0.063700  0.426300  0.377300  1.0  0.1291
  H  H121  1  0.181100  0.415000  0.407400  1.0  0.1191
  H  H122  1  0.192700  0.378700  0.348300  1.0  0.1244
  H  H123  1  0.315700  0.818100  0.190900  1.0  0.0977
  H  H124  1  0.424700  0.889900  0.181700  1.0  0.1187
  H  H125  1  0.436300  0.926300  0.122700  1.0  0.1295
  H  H126  1  0.318900  0.915000  0.092600  1.0  0.1189
  H  H127  1  0.307300  0.878700  0.151700  1.0  0.1241
  H  H128  1  0.815700  0.318100  0.690900  1.0  0.0977
  H  H129  1  0.924700  0.389900  0.681700  1.0  0.1187
  H  H130  1  0.936300  0.426300  0.622700  1.0  0.1295
  H  H131  1  0.818900  0.415000  0.592600  1.0  0.1189
  H  H132  1  0.807300  0.378700  0.651700  1.0  0.1241
  H  H133  1  0.684300  0.190900  0.818100  1.0  0.0956
  H  H134  1  0.575300  0.181700  0.889900  1.0  0.1197
  H  H135  1  0.563700  0.122700  0.926300  1.0  0.1286
  H  H136  1  0.681100  0.092600  0.915000  1.0  0.119
  H  H137  1  0.692700  0.151700  0.878700  1.0  0.1241
  H  H138  1  0.184300  0.690900  0.318100  1.0  0.0956
  H  H139  1  0.075300  0.681700  0.389900  1.0  0.1197
  H  H140  1  0.063700  0.622700  0.426300  1.0  0.1286
  H  H141  1  0.181100  0.592600  0.415000  1.0  0.119
  H  H142  1  0.192700  0.651700  0.378700  1.0  0.1241
  H  H143  1  0.315700  0.809100  0.818100  1.0  0.0963
  H  H144  1  0.424700  0.818300  0.889900  1.0  0.1196
  H  H145  1  0.436300  0.877300  0.926300  1.0  0.1287
  H  H146  1  0.318900  0.907400  0.915000  1.0  0.119
  H  H147  1  0.307300  0.848300  0.878700  1.0  0.1237
  H  H148  1  0.815700  0.309100  0.318100  1.0  0.0963
  H  H149  1  0.924700  0.318300  0.389900  1.0  0.1196
  H  H150  1  0.936300  0.377300  0.426300  1.0  0.1287
  H  H151  1  0.818900  0.407400  0.415000  1.0  0.119
  H  H152  1  0.807300  0.348300  0.378700  1.0  0.1237
  H  H153  1  0.684300  0.809100  0.181900  1.0  0.0953
  H  H154  1  0.575300  0.818300  0.110100  1.0  0.1198
  H  H155  1  0.563700  0.877300  0.073700  1.0  0.1293
  H  H156  1  0.681100  0.907400  0.085000  1.0  0.1197
  H  H157  1  0.692700  0.848300  0.121300  1.0  0.1235
  H  H158  1  0.184300  0.309100  0.681900  1.0  0.0953
  H  H159  1  0.075300  0.318300  0.610100  1.0  0.1198
  H  H160  1  0.063700  0.377300  0.573700  1.0  0.1293
  H  H161  1  0.181100  0.407400  0.585000  1.0  0.1197
  H  H162  1  0.192700  0.348300  0.621300  1.0  0.1235
  H  H163  1  0.315700  0.190900  0.181900  1.0  0.0953
  H  H164  1  0.424700  0.181700  0.110100  1.0  0.1192
  H  H165  1  0.436300  0.122700  0.073700  1.0  0.1288
  H  H166  1  0.318900  0.092600  0.085000  1.0  0.1192
  H  H167  1  0.307300  0.151700  0.121300  1.0  0.1235
  H  H168  1  0.815700  0.690900  0.681900  1.0  0.0953
  H  H169  1  0.924700  0.681700  0.610100  1.0  0.1192
  H  H170  1  0.936300  0.622700  0.573700  1.0  0.1288
  H  H171  1  0.818900  0.592600  0.585000  1.0  0.1192
  H  H172  1  0.807300  0.651700  0.621300  1.0  0.1235
  H  H173  1  0.190900  0.181900  0.315700  1.0  0.0967
  H  H174  1  0.181700  0.110100  0.424700  1.0  0.1198
  H  H175  1  0.122700  0.073700  0.436300  1.0  0.1281
  H  H176  1  0.092600  0.085000  0.318900  1.0  0.119
  H  H177  1  0.151700  0.121300  0.307300  1.0  0.1229
  H  H178  1  0.690900  0.681900  0.815700  1.0  0.0967
  H  H179  1  0.681700  0.610100  0.924700  1.0  0.1198
  H  H180  1  0.622700  0.573700  0.936300  1.0  0.1281
  H  H181  1  0.592600  0.585000  0.818900  1.0  0.119
  H  H182  1  0.651700  0.621300  0.807300  1.0  0.1229
  H  H183  1  0.809100  0.181900  0.684300  1.0  0.0962
  H  H184  1  0.818300  0.110100  0.575300  1.0  0.1194
  H  H185  1  0.877300  0.073700  0.563700  1.0  0.1281
  H  H186  1  0.907400  0.085000  0.681100  1.0  0.1195
  H  H187  1  0.848300  0.121300  0.692700  1.0  0.1238
  H  H188  1  0.309100  0.681900  0.184300  1.0  0.0962
  H  H189  1  0.318300  0.610100  0.075300  1.0  0.1194
  H  H190  1  0.377300  0.573700  0.063700  1.0  0.1281
  H  H191  1  0.407400  0.585000  0.181100  1.0  0.1195
  H  H192  1  0.348300  0.621300  0.192700  1.0  0.1238
  H  H193  1  0.809100  0.818100  0.315700  1.0  0.0968
  H  H194  1  0.818300  0.889900  0.424700  1.0  0.12
  H  H195  1  0.877300  0.926300  0.436300  1.0  0.1283
  H  H196  1  0.907400  0.915000  0.318900  1.0  0.1192
  H  H197  1  0.848300  0.878700  0.307300  1.0  0.123
  H  H198  1  0.309100  0.318100  0.815700  1.0  0.0968
  H  H199  1  0.318300  0.389900  0.924700  1.0  0.12
  H  H200  1  0.377300  0.426300  0.936300  1.0  0.1283
  H  H201  1  0.407400  0.415000  0.818900  1.0  0.1192
  H  H202  1  0.348300  0.378700  0.807300  1.0  0.123
  H  H203  1  0.190900  0.818100  0.684300  1.0  0.0965
  H  H204  1  0.181700  0.889900  0.575300  1.0  0.1196
  H  H205  1  0.122700  0.926300  0.563700  1.0  0.1284
  H  H206  1  0.092600  0.915000  0.681100  1.0  0.1197
  H  H207  1  0.151700  0.878700  0.692700  1.0  0.1237
  H  H208  1  0.690900  0.318100  0.184300  1.0  0.0965
  H  H209  1  0.681700  0.389900  0.075300  1.0  0.1196
  H  H210  1  0.622700  0.426300  0.063700  1.0  0.1284
  H  H211  1  0.592600  0.415000  0.181100  1.0  0.1197
  H  H212  1  0.651700  0.378700  0.192700  1.0  0.1237
  H  H213  1  0.181900  0.684300  0.809100  1.0  0.0967
  H  H214  1  0.110100  0.575300  0.818300  1.0  0.1182
  H  H215  1  0.073700  0.563700  0.877300  1.0  0.1295
  H  H216  1  0.085000  0.681100  0.907400  1.0  0.1194
  H  H217  1  0.121300  0.692700  0.848300  1.0  0.1244
  H  H218  1  0.681900  0.184300  0.309100  1.0  0.0967
  H  H219  1  0.610100  0.075300  0.318300  1.0  0.1182
  H  H220  1  0.573700  0.063700  0.377300  1.0  0.1295
  H  H221  1  0.585000  0.181100  0.407400  1.0  0.1194
  H  H222  1  0.621300  0.192700  0.348300  1.0  0.1244
  H  H223  1  0.181900  0.315700  0.190900  1.0  0.0977
  H  H224  1  0.110100  0.424700  0.181700  1.0  0.1185
  H  H225  1  0.073700  0.436300  0.122700  1.0  0.1297
  H  H226  1  0.085000  0.318900  0.092600  1.0  0.1185
  H  H227  1  0.121300  0.307300  0.151700  1.0  0.1248
  H  H228  1  0.681900  0.815700  0.690900  1.0  0.0977
  H  H229  1  0.610100  0.924700  0.681700  1.0  0.1185
  H  H230  1  0.573700  0.936300  0.622700  1.0  0.1297
  H  H231  1  0.585000  0.818900  0.592600  1.0  0.1185
  H  H232  1  0.621300  0.807300  0.651700  1.0  0.1248
  H  H233  1  0.818100  0.684300  0.190900  1.0  0.0975
  H  H234  1  0.889900  0.575300  0.181700  1.0  0.1183
  H  H235  1  0.926300  0.563700  0.122700  1.0  0.1297
  H  H236  1  0.915000  0.681100  0.092600  1.0  0.119
  H  H237  1  0.878700  0.692700  0.151700  1.0  0.1241
  H  H238  1  0.318100  0.184300  0.690900  1.0  0.0975
  H  H239  1  0.389900  0.075300  0.681700  1.0  0.1183
  H  H240  1  0.426300  0.063700  0.622700  1.0  0.1297
  H  H241  1  0.415000  0.181100  0.592600  1.0  0.119
  H  H242  1  0.378700  0.192700  0.651700  1.0  0.1241
  H  H243  1  0.818100  0.315700  0.809100  1.0  0.0969
  H  H244  1  0.889900  0.424700  0.818300  1.0  0.1189
  H  H245  1  0.926300  0.436300  0.877300  1.0  0.1293
  H  H246  1  0.915000  0.318900  0.907400  1.0  0.1187
  H  H247  1  0.878700  0.307300  0.848300  1.0  0.1245
  H  H248  1  0.318100  0.815700  0.309100  1.0  0.0969
  H  H249  1  0.389900  0.924700  0.318300  1.0  0.1189
  H  H250  1  0.426300  0.936300  0.377300  1.0  0.1293
  H  H251  1  0.415000  0.818900  0.407400  1.0  0.1187
  H  H252  1  0.378700  0.807300  0.348300  1.0  0.1245
  H  H253  1  0.300100  0.750000  0.199900  1.0  0.1176
  H  H254  1  0.699900  0.250000  0.199900  1.0  0.1175
  H  H255  1  0.699900  0.750000  0.800100  1.0  0.1174
  H  H256  1  0.300100  0.250000  0.800100  1.0  0.1173
  H  H257  1  0.199900  0.300100  0.750000  1.0  0.1167
  H  H258  1  0.199900  0.699900  0.250000  1.0  0.1163
  H  H259  1  0.800100  0.699900  0.750000  1.0  0.1165
  H  H260  1  0.800100  0.300100  0.250000  1.0  0.1163
  H  H261  1  0.750000  0.199900  0.300100  1.0  0.1179
  H  H262  1  0.250000  0.199900  0.699900  1.0  0.118
  H  H263  1  0.750000  0.800100  0.699900  1.0  0.118
  H  H264  1  0.250000  0.800100  0.300100  1.0  0.1177
  H  H265  1  0.750000  0.300100  0.800100  1.0  0.1177
  H  H266  1  0.250000  0.699900  0.800100  1.0  0.1179
  H  H267  1  0.750000  0.699900  0.199900  1.0  0.118
  H  H268  1  0.250000  0.300100  0.199900  1.0  0.118
  H  H269  1  0.300100  0.199900  0.250000  1.0  0.1165
  H  H270  1  0.699900  0.199900  0.750000  1.0  0.1163
  H  H271  1  0.699900  0.800100  0.250000  1.0  0.1167
  H  H272  1  0.300100  0.800100  0.750000  1.0  0.1163
  H  H273  1  0.199900  0.750000  0.699900  1.0  0.1175
  H  H274  1  0.199900  0.250000  0.300100  1.0  0.1174
  H  H275  1  0.800100  0.750000  0.300100  1.0  0.1173
  H  H276  1  0.800100  0.250000  0.699900  1.0  0.1176
  H  H277  1  0.250000  0.611300  0.111300  1.0  0.0576
  H  H278  1  0.750000  0.388700  0.111300  1.0  0.0567
  H  H279  1  0.250000  0.888700  0.611300  1.0  0.0567
  H  H280  1  0.750000  0.611300  0.888700  1.0  0.0588
  H  H281  1  0.250000  0.388700  0.888700  1.0  0.0577
  H  H282  1  0.111300  0.250000  0.611300  1.0  0.0591
  H  H283  1  0.111300  0.750000  0.388700  1.0  0.0604
  H  H284  1  0.611300  0.250000  0.888700  1.0  0.0604
  H  H285  1  0.888700  0.750000  0.611300  1.0  0.0593
  H  H286  1  0.888700  0.250000  0.388700  1.0  0.0598
  H  H287  1  0.611300  0.111300  0.250000  1.0  0.0591
  H  H288  1  0.388700  0.111300  0.750000  1.0  0.0582
  H  H289  1  0.888700  0.611300  0.250000  1.0  0.0582
  H  H290  1  0.611300  0.888700  0.750000  1.0  0.0579
  H  H291  1  0.388700  0.888700  0.250000  1.0  0.0574
  H  H292  1  0.388700  0.750000  0.888700  1.0  0.0598
  H  H293  1  0.611300  0.750000  0.111300  1.0  0.0591
  H  H294  1  0.388700  0.250000  0.111300  1.0  0.0593
  H  H295  1  0.250000  0.111300  0.388700  1.0  0.0588
  H  H296  1  0.750000  0.111300  0.611300  1.0  0.0576
  H  H297  1  0.750000  0.888700  0.388700  1.0  0.0577
  H  H298  1  0.111300  0.611300  0.750000  1.0  0.0591
  H  H299  1  0.111300  0.388700  0.250000  1.0  0.0579
  H  H300  1  0.888700  0.388700  0.750000  1.0  0.0574
  C  C301  1  0.215200  0.674300  0.171700  1.0  -0.1124
  C  C302  1  0.213900  0.646400  0.140700  1.0  0.0391
  C  C303  1  0.172600  0.635100  0.119300  1.0  0.0232
  C  C304  1  0.163900  0.596500  0.105000  1.0  -0.1051
  C  C305  1  0.128500  0.589500  0.083300  1.0  -0.0549
  C  C306  1  0.101800  0.621200  0.075800  1.0  -0.0958
  C  C307  1  0.110500  0.659900  0.090000  1.0  -0.0598
  C  C308  1  0.145900  0.666900  0.111800  1.0  -0.0972
  C  C309  1  0.063400  0.613500  0.047900  1.0  0.4008
  C  C310  1  0.715200  0.174300  0.671700  1.0  -0.1124
  C  C311  1  0.713900  0.146400  0.640700  1.0  0.0391
  C  C312  1  0.672600  0.135100  0.619300  1.0  0.0232
  C  C313  1  0.663900  0.096500  0.605000  1.0  -0.1051
  C  C314  1  0.628500  0.089500  0.583300  1.0  -0.0549
  C  C315  1  0.601800  0.121200  0.575800  1.0  -0.0958
  C  C316  1  0.610500  0.159900  0.590000  1.0  -0.0598
  C  C317  1  0.645900  0.166900  0.611800  1.0  -0.0972
  C  C318  1  0.563400  0.113500  0.547900  1.0  0.4008
  C  C319  1  0.784800  0.325700  0.171700  1.0  -0.1142
  C  C320  1  0.786100  0.353600  0.140700  1.0  0.0402
  C  C321  1  0.827400  0.364900  0.119300  1.0  0.0239
  C  C322  1  0.836100  0.403500  0.105000  1.0  -0.1044
  C  C323  1  0.871500  0.410500  0.083300  1.0  -0.0531
  C  C324  1  0.898200  0.378800  0.075800  1.0  -0.0952
  C  C325  1  0.889500  0.340100  0.090000  1.0  -0.0589
  C  C326  1  0.854100  0.333100  0.111800  1.0  -0.0984
  C  C327  1  0.936600  0.386500  0.047900  1.0  0.4008
  C  C328  1  0.284800  0.825700  0.671700  1.0  -0.1142
  C  C329  1  0.286100  0.853600  0.640700  1.0  0.0402
  C  C330  1  0.327400  0.864900  0.619300  1.0  0.0239
  C  C331  1  0.336100  0.903500  0.605000  1.0  -0.1044
  C  C332  1  0.371500  0.910500  0.583300  1.0  -0.0531
  C  C333  1  0.398200  0.878800  0.575800  1.0  -0.0952
  C  C334  1  0.389500  0.840100  0.590000  1.0  -0.0589
  C  C335  1  0.354100  0.833100  0.611800  1.0  -0.0984
  C  C336  1  0.436600  0.886500  0.547900  1.0  0.4008
  C  C337  1  0.784800  0.674300  0.828300  1.0  -0.1139
  C  C338  1  0.786100  0.646400  0.859300  1.0  0.0396
  C  C339  1  0.827400  0.635100  0.880700  1.0  0.0233
  C  C340  1  0.836100  0.596500  0.895000  1.0  -0.1041
  C  C341  1  0.871500  0.589500  0.916700  1.0  -0.0546
  C  C342  1  0.898200  0.621200  0.924200  1.0  -0.0952
  C  C343  1  0.889500  0.659900  0.910000  1.0  -0.059
  C  C344  1  0.854100  0.666900  0.888200  1.0  -0.0985
  C  C345  1  0.936600  0.613500  0.952100  1.0  0.4009
  C  C346  1  0.284800  0.174300  0.328300  1.0  -0.1139
  C  C347  1  0.286100  0.146400  0.359300  1.0  0.0396
  C  C348  1  0.327400  0.135100  0.380700  1.0  0.0233
  C  C349  1  0.336100  0.096500  0.395000  1.0  -0.1041
  C  C350  1  0.371500  0.089500  0.416700  1.0  -0.0546
  C  C351  1  0.398200  0.121200  0.424200  1.0  -0.0952
  C  C352  1  0.389500  0.159900  0.410000  1.0  -0.059
  C  C353  1  0.354100  0.166900  0.388200  1.0  -0.0985
  C  C354  1  0.436600  0.113500  0.452100  1.0  0.4009
  C  C355  1  0.215200  0.325700  0.828300  1.0  -0.1124
  C  C356  1  0.213900  0.353600  0.859300  1.0  0.0386
  C  C357  1  0.172600  0.364900  0.880700  1.0  0.0234
  C  C358  1  0.163900  0.403500  0.895000  1.0  -0.1042
  C  C359  1  0.128500  0.410500  0.916700  1.0  -0.0529
  C  C360  1  0.101800  0.378800  0.924200  1.0  -0.0954
  C  C361  1  0.110500  0.340100  0.910000  1.0  -0.0588
  C  C362  1  0.145900  0.333100  0.888200  1.0  -0.0969
  C  C363  1  0.063400  0.386500  0.952100  1.0  0.4005
  C  C364  1  0.715200  0.825700  0.328300  1.0  -0.1124
  C  C365  1  0.713900  0.853600  0.359300  1.0  0.0386
  C  C366  1  0.672600  0.864900  0.380700  1.0  0.0234
  C  C367  1  0.663900  0.903500  0.395000  1.0  -0.1042
  C  C368  1  0.628500  0.910500  0.416700  1.0  -0.0529
  C  C369  1  0.601800  0.878800  0.424200  1.0  -0.0954
  C  C370  1  0.610500  0.840100  0.410000  1.0  -0.0588
  C  C371  1  0.645900  0.833100  0.388200  1.0  -0.0969
  C  C372  1  0.563400  0.886500  0.452100  1.0  0.4005
  C  C373  1  0.171700  0.215200  0.674300  1.0  -0.1118
  C  C374  1  0.140700  0.213900  0.646400  1.0  0.0436
  C  C375  1  0.119300  0.172600  0.635100  1.0  0.0251
  C  C376  1  0.105000  0.163900  0.596500  1.0  -0.1067
  C  C377  1  0.083300  0.128500  0.589500  1.0  -0.0527
  C  C378  1  0.075800  0.101800  0.621200  1.0  -0.0968
  C  C379  1  0.090000  0.110500  0.659900  1.0  -0.0606
  C  C380  1  0.111800  0.145900  0.666900  1.0  -0.0949
  C  C381  1  0.047900  0.063400  0.613500  1.0  0.4024
  C  C382  1  0.671700  0.715200  0.174300  1.0  -0.1118
  C  C383  1  0.640700  0.713900  0.146400  1.0  0.0436
  C  C384  1  0.619300  0.672600  0.135100  1.0  0.0251
  C  C385  1  0.605000  0.663900  0.096500  1.0  -0.1067
  C  C386  1  0.583300  0.628500  0.089500  1.0  -0.0527
  C  C387  1  0.575800  0.601800  0.121200  1.0  -0.0968
  C  C388  1  0.590000  0.610500  0.159900  1.0  -0.0606
  C  C389  1  0.611800  0.645900  0.166900  1.0  -0.0949
  C  C390  1  0.547900  0.563400  0.113500  1.0  0.4024
  C  C391  1  0.171700  0.784800  0.325700  1.0  -0.1113
  C  C392  1  0.140700  0.786100  0.353600  1.0  0.0431
  C  C393  1  0.119300  0.827400  0.364900  1.0  0.0248
  C  C394  1  0.105000  0.836100  0.403500  1.0  -0.1052
  C  C395  1  0.083300  0.871500  0.410500  1.0  -0.053
  C  C396  1  0.075800  0.898200  0.378800  1.0  -0.0961
  C  C397  1  0.090000  0.889500  0.340100  1.0  -0.0609
  C  C398  1  0.111800  0.854100  0.333100  1.0  -0.0981
  C  C399  1  0.047900  0.936600  0.386500  1.0  0.4047
  C  C400  1  0.671700  0.284800  0.825700  1.0  -0.1113
  C  C401  1  0.640700  0.286100  0.853600  1.0  0.0431
  C  C402  1  0.619300  0.327400  0.864900  1.0  0.0248
  C  C403  1  0.605000  0.336100  0.903500  1.0  -0.1052
  C  C404  1  0.583300  0.371500  0.910500  1.0  -0.053
  C  C405  1  0.575800  0.398200  0.878800  1.0  -0.0961
  C  C406  1  0.590000  0.389500  0.840100  1.0  -0.0609
  C  C407  1  0.611800  0.354100  0.833100  1.0  -0.0981
  C  C408  1  0.547900  0.436600  0.886500  1.0  0.4047
  C  C409  1  0.828300  0.784800  0.674300  1.0  -0.1121
  C  C410  1  0.859300  0.786100  0.646400  1.0  0.0434
  C  C411  1  0.880700  0.827400  0.635100  1.0  0.024
  C  C412  1  0.895000  0.836100  0.596500  1.0  -0.1074
  C  C413  1  0.916700  0.871500  0.589500  1.0  -0.0551
  C  C414  1  0.924200  0.898200  0.621200  1.0  -0.0957
  C  C415  1  0.910000  0.889500  0.659900  1.0  -0.0594
  C  C416  1  0.888200  0.854100  0.666900  1.0  -0.0948
  C  C417  1  0.952100  0.936600  0.613500  1.0  0.4074
  C  C418  1  0.328300  0.284800  0.174300  1.0  -0.1121
  C  C419  1  0.359300  0.286100  0.146400  1.0  0.0434
  C  C420  1  0.380700  0.327400  0.135100  1.0  0.024
  C  C421  1  0.395000  0.336100  0.096500  1.0  -0.1074
  C  C422  1  0.416700  0.371500  0.089500  1.0  -0.0551
  C  C423  1  0.424200  0.398200  0.121200  1.0  -0.0957
  C  C424  1  0.410000  0.389500  0.159900  1.0  -0.0594
  C  C425  1  0.388200  0.354100  0.166900  1.0  -0.0948
  C  C426  1  0.452100  0.436600  0.113500  1.0  0.4074
  C  C427  1  0.828300  0.215200  0.325700  1.0  -0.1118
  C  C428  1  0.859300  0.213900  0.353600  1.0  0.0434
  C  C429  1  0.880700  0.172600  0.364900  1.0  0.0247
  C  C430  1  0.895000  0.163900  0.403500  1.0  -0.1067
  C  C431  1  0.916700  0.128500  0.410500  1.0  -0.0526
  C  C432  1  0.924200  0.101800  0.378800  1.0  -0.0964
  C  C433  1  0.910000  0.110500  0.340100  1.0  -0.0607
  C  C434  1  0.888200  0.145900  0.333100  1.0  -0.0981
  C  C435  1  0.952100  0.063400  0.386500  1.0  0.402
  C  C436  1  0.328300  0.715200  0.825700  1.0  -0.1118
  C  C437  1  0.359300  0.713900  0.853600  1.0  0.0434
  C  C438  1  0.380700  0.672600  0.864900  1.0  0.0247
  C  C439  1  0.395000  0.663900  0.903500  1.0  -0.1067
  C  C440  1  0.416700  0.628500  0.910500  1.0  -0.0526
  C  C441  1  0.424200  0.601800  0.878800  1.0  -0.0964
  C  C442  1  0.410000  0.610500  0.840100  1.0  -0.0607
  C  C443  1  0.388200  0.645900  0.833100  1.0  -0.0981
  C  C444  1  0.452100  0.563400  0.886500  1.0  0.402
  C  C445  1  0.674300  0.171700  0.215200  1.0  -0.1106
  C  C446  1  0.646400  0.140700  0.213900  1.0  0.0412
  C  C447  1  0.635100  0.119300  0.172600  1.0  0.0233
  C  C448  1  0.596500  0.105000  0.163900  1.0  -0.102
  C  C449  1  0.589500  0.083300  0.128500  1.0  -0.0509
  C  C450  1  0.621200  0.075800  0.101800  1.0  -0.0964
  C  C451  1  0.659900  0.090000  0.110500  1.0  -0.0585
  C  C452  1  0.666900  0.111800  0.145900  1.0  -0.0958
  C  C453  1  0.613500  0.047900  0.063400  1.0  0.4011
  C  C454  1  0.174300  0.671700  0.715200  1.0  -0.1106
  C  C455  1  0.146400  0.640700  0.713900  1.0  0.0412
  C  C456  1  0.135100  0.619300  0.672600  1.0  0.0233
  C  C457  1  0.096500  0.605000  0.663900  1.0  -0.102
  C  C458  1  0.089500  0.583300  0.628500  1.0  -0.0509
  C  C459  1  0.121200  0.575800  0.601800  1.0  -0.0964
  C  C460  1  0.159900  0.590000  0.610500  1.0  -0.0585
  C  C461  1  0.166900  0.611800  0.645900  1.0  -0.0958
  C  C462  1  0.113500  0.547900  0.563400  1.0  0.4011
  C  C463  1  0.325700  0.171700  0.784800  1.0  -0.1121
  C  C464  1  0.353600  0.140700  0.786100  1.0  0.0409
  C  C465  1  0.364900  0.119300  0.827400  1.0  0.0229
  C  C466  1  0.403500  0.105000  0.836100  1.0  -0.1021
  C  C467  1  0.410500  0.083300  0.871500  1.0  -0.0502
  C  C468  1  0.378800  0.075800  0.898200  1.0  -0.097
  C  C469  1  0.340100  0.090000  0.889500  1.0  -0.0573
  C  C470  1  0.333100  0.111800  0.854100  1.0  -0.0968
  C  C471  1  0.386500  0.047900  0.936600  1.0  0.4004
  C  C472  1  0.825700  0.671700  0.284800  1.0  -0.1121
  C  C473  1  0.853600  0.640700  0.286100  1.0  0.0409
  C  C474  1  0.864900  0.619300  0.327400  1.0  0.0229
  C  C475  1  0.903500  0.605000  0.336100  1.0  -0.1021
  C  C476  1  0.910500  0.583300  0.371500  1.0  -0.0502
  C  C477  1  0.878800  0.575800  0.398200  1.0  -0.097
  C  C478  1  0.840100  0.590000  0.389500  1.0  -0.0573
  C  C479  1  0.833100  0.611800  0.354100  1.0  -0.0968
  C  C480  1  0.886500  0.547900  0.436600  1.0  0.4004
  C  C481  1  0.674300  0.828300  0.784800  1.0  -0.1118
  C  C482  1  0.646400  0.859300  0.786100  1.0  0.0409
  C  C483  1  0.635100  0.880700  0.827400  1.0  0.0222
  C  C484  1  0.596500  0.895000  0.836100  1.0  -0.1017
  C  C485  1  0.589500  0.916700  0.871500  1.0  -0.0514
  C  C486  1  0.621200  0.924200  0.898200  1.0  -0.0968
  C  C487  1  0.659900  0.910000  0.889500  1.0  -0.0568
  C  C488  1  0.666900  0.888200  0.854100  1.0  -0.0948
  C  C489  1  0.613500  0.952100  0.936600  1.0  0.4019
  C  C490  1  0.174300  0.328300  0.284800  1.0  -0.1118
  C  C491  1  0.146400  0.359300  0.286100  1.0  0.0409
  C  C492  1  0.135100  0.380700  0.327400  1.0  0.0222
  C  C493  1  0.096500  0.395000  0.336100  1.0  -0.1017
  C  C494  1  0.089500  0.416700  0.371500  1.0  -0.0514
  C  C495  1  0.121200  0.424200  0.398200  1.0  -0.0968
  C  C496  1  0.159900  0.410000  0.389500  1.0  -0.0568
  C  C497  1  0.166900  0.388200  0.354100  1.0  -0.0948
  C  C498  1  0.113500  0.452100  0.436600  1.0  0.4019
  C  C499  1  0.325700  0.828300  0.215200  1.0  -0.111
  C  C500  1  0.353600  0.859300  0.213900  1.0  0.0418
  C  C501  1  0.364900  0.880700  0.172600  1.0  0.0229
  C  C502  1  0.403500  0.895000  0.163900  1.0  -0.1016
  C  C503  1  0.410500  0.916700  0.128500  1.0  -0.0502
  C  C504  1  0.378800  0.924200  0.101800  1.0  -0.0957
  C  C505  1  0.340100  0.910000  0.110500  1.0  -0.059
  C  C506  1  0.333100  0.888200  0.145900  1.0  -0.0976
  C  C507  1  0.386500  0.952100  0.063400  1.0  0.4
  C  C508  1  0.825700  0.328300  0.715200  1.0  -0.111
  C  C509  1  0.853600  0.359300  0.713900  1.0  0.0418
  C  C510  1  0.864900  0.380700  0.672600  1.0  0.0229
  C  C511  1  0.903500  0.395000  0.663900  1.0  -0.1016
  C  C512  1  0.910500  0.416700  0.628500  1.0  -0.0502
  C  C513  1  0.878800  0.424200  0.601800  1.0  -0.0957
  C  C514  1  0.840100  0.410000  0.610500  1.0  -0.059
  C  C515  1  0.833100  0.388200  0.645900  1.0  -0.0976
  C  C516  1  0.886500  0.452100  0.563400  1.0  0.4
  C  C517  1  0.674300  0.215200  0.828300  1.0  -0.1114
  C  C518  1  0.646400  0.213900  0.859300  1.0  0.0417
  C  C519  1  0.635100  0.172600  0.880700  1.0  0.0239
  C  C520  1  0.596500  0.163900  0.895000  1.0  -0.1018
  C  C521  1  0.589500  0.128500  0.916700  1.0  -0.051
  C  C522  1  0.621200  0.101800  0.924200  1.0  -0.097
  C  C523  1  0.659900  0.110500  0.910000  1.0  -0.0583
  C  C524  1  0.666900  0.145900  0.888200  1.0  -0.0958
  C  C525  1  0.613500  0.063400  0.952100  1.0  0.4005
  C  C526  1  0.174300  0.715200  0.328300  1.0  -0.1114
  C  C527  1  0.146400  0.713900  0.359300  1.0  0.0417
  C  C528  1  0.135100  0.672600  0.380700  1.0  0.0239
  C  C529  1  0.096500  0.663900  0.395000  1.0  -0.1018
  C  C530  1  0.089500  0.628500  0.416700  1.0  -0.051
  C  C531  1  0.121200  0.601800  0.424200  1.0  -0.097
  C  C532  1  0.159900  0.610500  0.410000  1.0  -0.0583
  C  C533  1  0.166900  0.645900  0.388200  1.0  -0.0958
  C  C534  1  0.113500  0.563400  0.452100  1.0  0.4005
  C  C535  1  0.325700  0.784800  0.828300  1.0  -0.1114
  C  C536  1  0.353600  0.786100  0.859300  1.0  0.0416
  C  C537  1  0.364900  0.827400  0.880700  1.0  0.0236
  C  C538  1  0.403500  0.836100  0.895000  1.0  -0.1013
  C  C539  1  0.410500  0.871500  0.916700  1.0  -0.0504
  C  C540  1  0.378800  0.898200  0.924200  1.0  -0.0962
  C  C541  1  0.340100  0.889500  0.910000  1.0  -0.0588
  C  C542  1  0.333100  0.854100  0.888200  1.0  -0.0975
  C  C543  1  0.386500  0.936600  0.952100  1.0  0.4029
  C  C544  1  0.825700  0.284800  0.328300  1.0  -0.1114
  C  C545  1  0.853600  0.286100  0.359300  1.0  0.0416
  C  C546  1  0.864900  0.327400  0.380700  1.0  0.0236
  C  C547  1  0.903500  0.336100  0.395000  1.0  -0.1013
  C  C548  1  0.910500  0.371500  0.416700  1.0  -0.0504
  C  C549  1  0.878800  0.398200  0.424200  1.0  -0.0962
  C  C550  1  0.840100  0.389500  0.410000  1.0  -0.0588
  C  C551  1  0.833100  0.354100  0.388200  1.0  -0.0975
  C  C552  1  0.886500  0.436600  0.452100  1.0  0.4029
  C  C553  1  0.674300  0.784800  0.171700  1.0  -0.1118
  C  C554  1  0.646400  0.786100  0.140700  1.0  0.0423
  C  C555  1  0.635100  0.827400  0.119300  1.0  0.0235
  C  C556  1  0.596500  0.836100  0.105000  1.0  -0.1016
  C  C557  1  0.589500  0.871500  0.083300  1.0  -0.0512
  C  C558  1  0.621200  0.898200  0.075800  1.0  -0.0962
  C  C559  1  0.659900  0.889500  0.090000  1.0  -0.0579
  C  C560  1  0.666900  0.854100  0.111800  1.0  -0.0955
  C  C561  1  0.613500  0.936600  0.047900  1.0  0.4047
  C  C562  1  0.174300  0.284800  0.671700  1.0  -0.1118
  C  C563  1  0.146400  0.286100  0.640700  1.0  0.0423
  C  C564  1  0.135100  0.327400  0.619300  1.0  0.0235
  C  C565  1  0.096500  0.336100  0.605000  1.0  -0.1016
  C  C566  1  0.089500  0.371500  0.583300  1.0  -0.0512
  C  C567  1  0.121200  0.398200  0.575800  1.0  -0.0962
  C  C568  1  0.159900  0.389500  0.590000  1.0  -0.0579
  C  C569  1  0.166900  0.354100  0.611800  1.0  -0.0955
  C  C570  1  0.113500  0.436600  0.547900  1.0  0.4047
  C  C571  1  0.325700  0.215200  0.171700  1.0  -0.1118
  C  C572  1  0.353600  0.213900  0.140700  1.0  0.0426
  C  C573  1  0.364900  0.172600  0.119300  1.0  0.0241
  C  C574  1  0.403500  0.163900  0.105000  1.0  -0.1016
  C  C575  1  0.410500  0.128500  0.083300  1.0  -0.0503
  C  C576  1  0.378800  0.101800  0.075800  1.0  -0.0965
  C  C577  1  0.340100  0.110500  0.090000  1.0  -0.0582
  C  C578  1  0.333100  0.145900  0.111800  1.0  -0.0976
  C  C579  1  0.386500  0.063400  0.047900  1.0  0.3992
  C  C580  1  0.825700  0.715200  0.671700  1.0  -0.1118
  C  C581  1  0.853600  0.713900  0.640700  1.0  0.0426
  C  C582  1  0.864900  0.672600  0.619300  1.0  0.0241
  C  C583  1  0.903500  0.663900  0.605000  1.0  -0.1016
  C  C584  1  0.910500  0.628500  0.583300  1.0  -0.0503
  C  C585  1  0.878800  0.601800  0.575800  1.0  -0.0965
  C  C586  1  0.840100  0.610500  0.590000  1.0  -0.0582
  C  C587  1  0.833100  0.645900  0.611800  1.0  -0.0976
  C  C588  1  0.886500  0.563400  0.547900  1.0  0.3992
  C  C589  1  0.215200  0.171700  0.325700  1.0  -0.1126
  C  C590  1  0.213900  0.140700  0.353600  1.0  0.0386
  C  C591  1  0.172600  0.119300  0.364900  1.0  0.0238
  C  C592  1  0.163900  0.105000  0.403500  1.0  -0.1062
  C  C593  1  0.128500  0.083300  0.410500  1.0  -0.053
  C  C594  1  0.101800  0.075800  0.378800  1.0  -0.0957
  C  C595  1  0.110500  0.090000  0.340100  1.0  -0.0602
  C  C596  1  0.145900  0.111800  0.333100  1.0  -0.0995
  C  C597  1  0.063400  0.047900  0.386500  1.0  0.4003
  C  C598  1  0.715200  0.671700  0.825700  1.0  -0.1126
  C  C599  1  0.713900  0.640700  0.853600  1.0  0.0386
  C  C600  1  0.672600  0.619300  0.864900  1.0  0.0238
  C  C601  1  0.663900  0.605000  0.903500  1.0  -0.1062
  C  C602  1  0.628500  0.583300  0.910500  1.0  -0.053
  C  C603  1  0.601800  0.575800  0.878800  1.0  -0.0957
  C  C604  1  0.610500  0.590000  0.840100  1.0  -0.0602
  C  C605  1  0.645900  0.611800  0.833100  1.0  -0.0995
  C  C606  1  0.563400  0.547900  0.886500  1.0  0.4003
  C  C607  1  0.784800  0.171700  0.674300  1.0  -0.1147
  C  C608  1  0.786100  0.140700  0.646400  1.0  0.04
  C  C609  1  0.827400  0.119300  0.635100  1.0  0.0239
  C  C610  1  0.836100  0.105000  0.596500  1.0  -0.1062
  C  C611  1  0.871500  0.083300  0.589500  1.0  -0.0541
  C  C612  1  0.898200  0.075800  0.621200  1.0  -0.0952
  C  C613  1  0.889500  0.090000  0.659900  1.0  -0.0593
  C  C614  1  0.854100  0.111800  0.666900  1.0  -0.0963
  C  C615  1  0.936600  0.047900  0.613500  1.0  0.4014
  C  C616  1  0.284800  0.671700  0.174300  1.0  -0.1147
  C  C617  1  0.286100  0.640700  0.146400  1.0  0.04
  C  C618  1  0.327400  0.619300  0.135100  1.0  0.0239
  C  C619  1  0.336100  0.605000  0.096500  1.0  -0.1062
  C  C620  1  0.371500  0.583300  0.089500  1.0  -0.0541
  C  C621  1  0.398200  0.575800  0.121200  1.0  -0.0952
  C  C622  1  0.389500  0.590000  0.159900  1.0  -0.0593
  C  C623  1  0.354100  0.611800  0.166900  1.0  -0.0963
  C  C624  1  0.436600  0.547900  0.113500  1.0  0.4014
  C  C625  1  0.784800  0.828300  0.325700  1.0  -0.1145
  C  C626  1  0.786100  0.859300  0.353600  1.0  0.0395
  C  C627  1  0.827400  0.880700  0.364900  1.0  0.0232
  C  C628  1  0.836100  0.895000  0.403500  1.0  -0.1056
  C  C629  1  0.871500  0.916700  0.410500  1.0  -0.0525
  C  C630  1  0.898200  0.924200  0.378800  1.0  -0.0952
  C  C631  1  0.889500  0.910000  0.340100  1.0  -0.0611
  C  C632  1  0.854100  0.888200  0.333100  1.0  -0.0999
  C  C633  1  0.936600  0.952100  0.386500  1.0  0.4002
  C  C634  1  0.284800  0.328300  0.825700  1.0  -0.1145
  C  C635  1  0.286100  0.359300  0.853600  1.0  0.0395
  C  C636  1  0.327400  0.380700  0.864900  1.0  0.0232
  C  C637  1  0.336100  0.395000  0.903500  1.0  -0.1056
  C  C638  1  0.371500  0.416700  0.910500  1.0  -0.0525
  C  C639  1  0.398200  0.424200  0.878800  1.0  -0.0952
  C  C640  1  0.389500  0.410000  0.840100  1.0  -0.0611
  C  C641  1  0.354100  0.388200  0.833100  1.0  -0.0999
  C  C642  1  0.436600  0.452100  0.886500  1.0  0.4002
  C  C643  1  0.215200  0.828300  0.674300  1.0  -0.1131
  C  C644  1  0.213900  0.859300  0.646400  1.0  0.039
  C  C645  1  0.172600  0.880700  0.635100  1.0  0.0234
  C  C646  1  0.163900  0.895000  0.596500  1.0  -0.1069
  C  C647  1  0.128500  0.916700  0.589500  1.0  -0.0546
  C  C648  1  0.101800  0.924200  0.621200  1.0  -0.0952
  C  C649  1  0.110500  0.910000  0.659900  1.0  -0.0617
  C  C650  1  0.145900  0.888200  0.666900  1.0  -0.0956
  C  C651  1  0.063400  0.952100  0.613500  1.0  0.4018
  C  C652  1  0.715200  0.328300  0.174300  1.0  -0.1131
  C  C653  1  0.713900  0.359300  0.146400  1.0  0.039
  C  C654  1  0.672600  0.380700  0.135100  1.0  0.0234
  C  C655  1  0.663900  0.395000  0.096500  1.0  -0.1069
  C  C656  1  0.628500  0.416700  0.089500  1.0  -0.0546
  C  C657  1  0.601800  0.424200  0.121200  1.0  -0.0952
  C  C658  1  0.610500  0.410000  0.159900  1.0  -0.0617
  C  C659  1  0.645900  0.388200  0.166900  1.0  -0.0956
  C  C660  1  0.563400  0.452100  0.113500  1.0  0.4018
  C  C661  1  0.171700  0.674300  0.784800  1.0  -0.1119
  C  C662  1  0.140700  0.646400  0.786100  1.0  0.0424
  C  C663  1  0.119300  0.635100  0.827400  1.0  0.0234
  C  C664  1  0.105000  0.596500  0.836100  1.0  -0.1039
  C  C665  1  0.083300  0.589500  0.871500  1.0  -0.0552
  C  C666  1  0.075800  0.621200  0.898200  1.0  -0.097
  C  C667  1  0.090000  0.659900  0.889500  1.0  -0.059
  C  C668  1  0.111800  0.666900  0.854100  1.0  -0.0954
  C  C669  1  0.047900  0.613500  0.936600  1.0  0.403
  C  C670  1  0.671700  0.174300  0.284800  1.0  -0.1119
  C  C671  1  0.640700  0.146400  0.286100  1.0  0.0424
  C  C672  1  0.619300  0.135100  0.327400  1.0  0.0234
  C  C673  1  0.605000  0.096500  0.336100  1.0  -0.1039
  C  C674  1  0.583300  0.089500  0.371500  1.0  -0.0552
  C  C675  1  0.575800  0.121200  0.398200  1.0  -0.097
  C  C676  1  0.590000  0.159900  0.389500  1.0  -0.059
  C  C677  1  0.611800  0.166900  0.354100  1.0  -0.0954
  C  C678  1  0.547900  0.113500  0.436600  1.0  0.403
  C  C679  1  0.171700  0.325700  0.215200  1.0  -0.1103
  C  C680  1  0.140700  0.353600  0.213900  1.0  0.0427
  C  C681  1  0.119300  0.364900  0.172600  1.0  0.0245
  C  C682  1  0.105000  0.403500  0.163900  1.0  -0.1039
  C  C683  1  0.083300  0.410500  0.128500  1.0  -0.0525
  C  C684  1  0.075800  0.378800  0.101800  1.0  -0.0959
  C  C685  1  0.090000  0.340100  0.110500  1.0  -0.0602
  C  C686  1  0.111800  0.333100  0.145900  1.0  -0.0963
  C  C687  1  0.047900  0.386500  0.063400  1.0  0.4021
  C  C688  1  0.671700  0.825700  0.715200  1.0  -0.1103
  C  C689  1  0.640700  0.853600  0.713900  1.0  0.0427
  C  C690  1  0.619300  0.864900  0.672600  1.0  0.0245
  C  C691  1  0.605000  0.903500  0.663900  1.0  -0.1039
  C  C692  1  0.583300  0.910500  0.628500  1.0  -0.0525
  C  C693  1  0.575800  0.878800  0.601800  1.0  -0.0959
  C  C694  1  0.590000  0.840100  0.610500  1.0  -0.0602
  C  C695  1  0.611800  0.833100  0.645900  1.0  -0.0963
  C  C696  1  0.547900  0.886500  0.563400  1.0  0.4021
  C  C697  1  0.828300  0.674300  0.215200  1.0  -0.1103
  C  C698  1  0.859300  0.646400  0.213900  1.0  0.0433
  C  C699  1  0.880700  0.635100  0.172600  1.0  0.0234
  C  C700  1  0.895000  0.596500  0.163900  1.0  -0.1054
  C  C701  1  0.916700  0.589500  0.128500  1.0  -0.0548
  C  C702  1  0.924200  0.621200  0.101800  1.0  -0.0959
  C  C703  1  0.910000  0.659900  0.110500  1.0  -0.0611
  C  C704  1  0.888200  0.666900  0.145900  1.0  -0.0974
  C  C705  1  0.952100  0.613500  0.063400  1.0  0.4032
  C  C706  1  0.328300  0.174300  0.715200  1.0  -0.1103
  C  C707  1  0.359300  0.146400  0.713900  1.0  0.0433
  C  C708  1  0.380700  0.135100  0.672600  1.0  0.0234
  C  C709  1  0.395000  0.096500  0.663900  1.0  -0.1054
  C  C710  1  0.416700  0.089500  0.628500  1.0  -0.0548
  C  C711  1  0.424200  0.121200  0.601800  1.0  -0.0959
  C  C712  1  0.410000  0.159900  0.610500  1.0  -0.0611
  C  C713  1  0.388200  0.166900  0.645900  1.0  -0.0974
  C  C714  1  0.452100  0.113500  0.563400  1.0  0.4032
  C  C715  1  0.828300  0.325700  0.784800  1.0  -0.1117
  C  C716  1  0.859300  0.353600  0.786100  1.0  0.0423
  C  C717  1  0.880700  0.364900  0.827400  1.0  0.0232
  C  C718  1  0.895000  0.403500  0.836100  1.0  -0.1047
  C  C719  1  0.916700  0.410500  0.871500  1.0  -0.0531
  C  C720  1  0.924200  0.378800  0.898200  1.0  -0.0969
  C  C721  1  0.910000  0.340100  0.889500  1.0  -0.0574
  C  C722  1  0.888200  0.333100  0.854100  1.0  -0.0961
  C  C723  1  0.952100  0.386500  0.936600  1.0  0.4031
  C  C724  1  0.328300  0.825700  0.284800  1.0  -0.1117
  C  C725  1  0.359300  0.853600  0.286100  1.0  0.0423
  C  C726  1  0.380700  0.864900  0.327400  1.0  0.0232
  C  C727  1  0.395000  0.903500  0.336100  1.0  -0.1047
  C  C728  1  0.416700  0.910500  0.371500  1.0  -0.0531
  C  C729  1  0.424200  0.878800  0.398200  1.0  -0.0969
  C  C730  1  0.410000  0.840100  0.389500  1.0  -0.0574
  C  C731  1  0.388200  0.833100  0.354100  1.0  -0.0961
  C  C732  1  0.452100  0.886500  0.436600  1.0  0.4031
  C  C733  1  0.280200  0.750000  0.219800  1.0  -0.0553
  C  C734  1  0.719800  0.250000  0.219800  1.0  -0.0563
  C  C735  1  0.719800  0.750000  0.780200  1.0  -0.0559
  C  C736  1  0.280200  0.250000  0.780200  1.0  -0.0553
  C  C737  1  0.219800  0.280200  0.750000  1.0  -0.0559
  C  C738  1  0.219800  0.719800  0.250000  1.0  -0.0556
  C  C739  1  0.780200  0.719800  0.750000  1.0  -0.0545
  C  C740  1  0.780200  0.280200  0.250000  1.0  -0.0551
  C  C741  1  0.750000  0.219800  0.280200  1.0  -0.0533
  C  C742  1  0.250000  0.219800  0.719800  1.0  -0.0531
  C  C743  1  0.750000  0.780200  0.719800  1.0  -0.0537
  C  C744  1  0.250000  0.780200  0.280200  1.0  -0.054
  C  C745  1  0.750000  0.280200  0.780200  1.0  -0.054
  C  C746  1  0.250000  0.719800  0.780200  1.0  -0.0533
  C  C747  1  0.750000  0.719800  0.219800  1.0  -0.0531
  C  C748  1  0.250000  0.280200  0.219800  1.0  -0.0537
  C  C749  1  0.280200  0.219800  0.250000  1.0  -0.0545
  C  C750  1  0.719800  0.219800  0.750000  1.0  -0.0556
  C  C751  1  0.719800  0.780200  0.250000  1.0  -0.0559
  C  C752  1  0.280200  0.780200  0.750000  1.0  -0.0551
  C  C753  1  0.219800  0.750000  0.719800  1.0  -0.0563
  C  C754  1  0.219800  0.250000  0.280200  1.0  -0.0559
  C  C755  1  0.780200  0.750000  0.280200  1.0  -0.0553
  C  C756  1  0.780200  0.250000  0.719800  1.0  -0.0553
  C  C757  1  0.250000  0.719500  0.219500  1.0  0.0069
  C  C758  1  0.250000  0.687600  0.187600  1.0  0.1096
  C  C759  1  0.250000  0.631200  0.131200  1.0  -0.04
  C  C760  1  0.750000  0.280500  0.219500  1.0  0.0067
  C  C761  1  0.750000  0.312400  0.187600  1.0  0.1097
  C  C762  1  0.750000  0.368800  0.131200  1.0  -0.0391
  C  C763  1  0.250000  0.780500  0.719500  1.0  0.0067
  C  C764  1  0.250000  0.812400  0.687600  1.0  0.1097
  C  C765  1  0.250000  0.868800  0.631200  1.0  -0.0391
  C  C766  1  0.750000  0.719500  0.780500  1.0  0.0069
  C  C767  1  0.750000  0.687600  0.812400  1.0  0.1092
  C  C768  1  0.750000  0.631200  0.868800  1.0  -0.0391
  C  C769  1  0.250000  0.280500  0.780500  1.0  0.0066
  C  C770  1  0.250000  0.312400  0.812400  1.0  0.1095
  C  C771  1  0.250000  0.368800  0.868800  1.0  -0.0396
  C  C772  1  0.219500  0.250000  0.719500  1.0  0.0064
  C  C773  1  0.187600  0.250000  0.687600  1.0  0.1091
  C  C774  1  0.131200  0.250000  0.631200  1.0  -0.0397
  C  C775  1  0.219500  0.750000  0.280500  1.0  0.0064
  C  C776  1  0.187600  0.750000  0.312400  1.0  0.109
  C  C777  1  0.131200  0.750000  0.368800  1.0  -0.0395
  C  C778  1  0.719500  0.250000  0.780500  1.0  0.0064
  C  C779  1  0.687600  0.250000  0.812400  1.0  0.109
  C  C780  1  0.631200  0.250000  0.868800  1.0  -0.0395
  C  C781  1  0.780500  0.750000  0.719500  1.0  0.0067
  C  C782  1  0.812400  0.750000  0.687600  1.0  0.109
  C  C783  1  0.868800  0.750000  0.631200  1.0  -0.0418
  C  C784  1  0.780500  0.250000  0.280500  1.0  0.0067
  C  C785  1  0.812400  0.250000  0.312400  1.0  0.1087
  C  C786  1  0.868800  0.250000  0.368800  1.0  -0.0417
  C  C787  1  0.719500  0.219500  0.250000  1.0  0.0065
  C  C788  1  0.687600  0.187600  0.250000  1.0  0.1094
  C  C789  1  0.631200  0.131200  0.250000  1.0  -0.0394
  C  C790  1  0.280500  0.219500  0.750000  1.0  0.0068
  C  C791  1  0.312400  0.187600  0.750000  1.0  0.1092
  C  C792  1  0.368800  0.131200  0.750000  1.0  -0.0415
  C  C793  1  0.780500  0.719500  0.250000  1.0  0.0068
  C  C794  1  0.812400  0.687600  0.250000  1.0  0.1092
  C  C795  1  0.868800  0.631200  0.250000  1.0  -0.0415
  C  C796  1  0.719500  0.780500  0.750000  1.0  0.0063
  C  C797  1  0.687600  0.812400  0.750000  1.0  0.1096
  C  C798  1  0.631200  0.868800  0.750000  1.0  -0.0395
  C  C799  1  0.280500  0.780500  0.250000  1.0  0.0066
  C  C800  1  0.312400  0.812400  0.250000  1.0  0.1094
  C  C801  1  0.368800  0.868800  0.250000  1.0  -0.0416
  C  C802  1  0.280500  0.750000  0.780500  1.0  0.0067
  C  C803  1  0.312400  0.750000  0.812400  1.0  0.1087
  C  C804  1  0.368800  0.750000  0.868800  1.0  -0.0417
  C  C805  1  0.719500  0.750000  0.219500  1.0  0.0064
  C  C806  1  0.687600  0.750000  0.187600  1.0  0.1091
  C  C807  1  0.631200  0.750000  0.131200  1.0  -0.0397
  C  C808  1  0.280500  0.250000  0.219500  1.0  0.0067
  C  C809  1  0.312400  0.250000  0.187600  1.0  0.109
  C  C810  1  0.368800  0.250000  0.131200  1.0  -0.0418
  C  C811  1  0.250000  0.219500  0.280500  1.0  0.0069
  C  C812  1  0.250000  0.187600  0.312400  1.0  0.1092
  C  C813  1  0.250000  0.131200  0.368800  1.0  -0.0391
  C  C814  1  0.750000  0.219500  0.719500  1.0  0.0069
  C  C815  1  0.750000  0.187600  0.687600  1.0  0.1096
  C  C816  1  0.750000  0.131200  0.631200  1.0  -0.04
  C  C817  1  0.750000  0.780500  0.280500  1.0  0.0066
  C  C818  1  0.750000  0.812400  0.312400  1.0  0.1095
  C  C819  1  0.750000  0.868800  0.368800  1.0  -0.0396
  C  C820  1  0.219500  0.719500  0.750000  1.0  0.0065
  C  C821  1  0.187600  0.687600  0.750000  1.0  0.1094
  C  C822  1  0.131200  0.631200  0.750000  1.0  -0.0394
  C  C823  1  0.219500  0.280500  0.250000  1.0  0.0063
  C  C824  1  0.187600  0.312400  0.250000  1.0  0.1096
  C  C825  1  0.131200  0.368800  0.250000  1.0  -0.0395
  C  C826  1  0.780500  0.280500  0.750000  1.0  0.0066
  C  C827  1  0.812400  0.312400  0.750000  1.0  0.1094
  C  C828  1  0.868800  0.368800  0.750000  1.0  -0.0416
  O  O829  1  0.046300  0.650300  0.032700  1.0  -0.6101
  O  O830  1  0.040400  0.588400  0.056500  1.0  -0.5452
  O  O831  1  0.546300  0.150300  0.532700  1.0  -0.6101
  O  O832  1  0.540400  0.088400  0.556500  1.0  -0.5452
  O  O833  1  0.953700  0.349700  0.032700  1.0  -0.6085
  O  O834  1  0.959600  0.411600  0.056500  1.0  -0.5458
  O  O835  1  0.453700  0.849700  0.532700  1.0  -0.6085
  O  O836  1  0.459600  0.911600  0.556500  1.0  -0.5458
  O  O837  1  0.953700  0.650300  0.967300  1.0  -0.6091
  O  O838  1  0.959600  0.588400  0.943500  1.0  -0.5454
  O  O839  1  0.453700  0.150300  0.467300  1.0  -0.6091
  O  O840  1  0.459600  0.088400  0.443500  1.0  -0.5454
  O  O841  1  0.046300  0.349700  0.967300  1.0  -0.6094
  O  O842  1  0.040400  0.411600  0.943500  1.0  -0.5455
  O  O843  1  0.546300  0.849700  0.467300  1.0  -0.6094
  O  O844  1  0.540400  0.911600  0.443500  1.0  -0.5455
  O  O845  1  0.032700  0.046300  0.650300  1.0  -0.6133
  O  O846  1  0.056500  0.040400  0.588400  1.0  -0.5465
  O  O847  1  0.532700  0.546300  0.150300  1.0  -0.6133
  O  O848  1  0.556500  0.540400  0.088400  1.0  -0.5465
  O  O849  1  0.032700  0.953700  0.349700  1.0  -0.6147
  O  O850  1  0.056500  0.959600  0.411600  1.0  -0.5473
  O  O851  1  0.532700  0.453700  0.849700  1.0  -0.6147
  O  O852  1  0.556500  0.459600  0.911600  1.0  -0.5473
  O  O853  1  0.967300  0.953700  0.650300  1.0  -0.6125
  O  O854  1  0.943500  0.959600  0.588400  1.0  -0.5468
  O  O855  1  0.467300  0.453700  0.150300  1.0  -0.6125
  O  O856  1  0.443500  0.459600  0.088400  1.0  -0.5468
  O  O857  1  0.967300  0.046300  0.349700  1.0  -0.6149
  O  O858  1  0.943500  0.040400  0.411600  1.0  -0.5471
  O  O859  1  0.467300  0.546300  0.849700  1.0  -0.6149
  O  O860  1  0.443500  0.540400  0.911600  1.0  -0.5471
  O  O861  1  0.650300  0.032700  0.046300  1.0  -0.6092
  O  O862  1  0.588400  0.056500  0.040400  1.0  -0.549
  O  O863  1  0.150300  0.532700  0.546300  1.0  -0.6092
  O  O864  1  0.088400  0.556500  0.540400  1.0  -0.549
  O  O865  1  0.349700  0.032700  0.953700  1.0  -0.6082
  O  O866  1  0.411600  0.056500  0.959600  1.0  -0.5483
  O  O867  1  0.849700  0.532700  0.453700  1.0  -0.6082
  O  O868  1  0.911600  0.556500  0.459600  1.0  -0.5483
  O  O869  1  0.650300  0.967300  0.953700  1.0  -0.609
  O  O870  1  0.588400  0.943500  0.959600  1.0  -0.5479
  O  O871  1  0.150300  0.467300  0.453700  1.0  -0.609
  O  O872  1  0.088400  0.443500  0.459600  1.0  -0.5479
  O  O873  1  0.349700  0.967300  0.046300  1.0  -0.6079
  O  O874  1  0.411600  0.943500  0.040400  1.0  -0.5477
  O  O875  1  0.849700  0.467300  0.546300  1.0  -0.6079
  O  O876  1  0.911600  0.443500  0.540400  1.0  -0.5477
  O  O877  1  0.650300  0.046300  0.967300  1.0  -0.6089
  O  O878  1  0.588400  0.040400  0.943500  1.0  -0.5474
  O  O879  1  0.150300  0.546300  0.467300  1.0  -0.6089
  O  O880  1  0.088400  0.540400  0.443500  1.0  -0.5474
  O  O881  1  0.349700  0.953700  0.967300  1.0  -0.6074
  O  O882  1  0.411600  0.959600  0.943500  1.0  -0.5473
  O  O883  1  0.849700  0.453700  0.467300  1.0  -0.6074
  O  O884  1  0.911600  0.459600  0.443500  1.0  -0.5473
  O  O885  1  0.650300  0.953700  0.032700  1.0  -0.6087
  O  O886  1  0.588400  0.959600  0.056500  1.0  -0.5477
  O  O887  1  0.150300  0.453700  0.532700  1.0  -0.6087
  O  O888  1  0.088400  0.459600  0.556500  1.0  -0.5477
  O  O889  1  0.349700  0.046300  0.032700  1.0  -0.6079
  O  O890  1  0.411600  0.040400  0.056500  1.0  -0.5477
  O  O891  1  0.849700  0.546300  0.532700  1.0  -0.6079
  O  O892  1  0.911600  0.540400  0.556500  1.0  -0.5477
  O  O893  1  0.046300  0.032700  0.349700  1.0  -0.6159
  O  O894  1  0.040400  0.056500  0.411600  1.0  -0.5469
  O  O895  1  0.546300  0.532700  0.849700  1.0  -0.6159
  O  O896  1  0.540400  0.556500  0.911600  1.0  -0.5469
  O  O897  1  0.953700  0.032700  0.650300  1.0  -0.613
  O  O898  1  0.959600  0.056500  0.588400  1.0  -0.5456
  O  O899  1  0.453700  0.532700  0.150300  1.0  -0.613
  O  O900  1  0.459600  0.556500  0.088400  1.0  -0.5456
  O  O901  1  0.953700  0.967300  0.349700  1.0  -0.6149
  O  O902  1  0.959600  0.943500  0.411600  1.0  -0.5455
  O  O903  1  0.453700  0.467300  0.849700  1.0  -0.6149
  O  O904  1  0.459600  0.443500  0.911600  1.0  -0.5455
  O  O905  1  0.046300  0.967300  0.650300  1.0  -0.6139
  O  O906  1  0.040400  0.943500  0.588400  1.0  -0.5459
  O  O907  1  0.546300  0.467300  0.150300  1.0  -0.6139
  O  O908  1  0.540400  0.443500  0.088400  1.0  -0.5459
  O  O909  1  0.032700  0.650300  0.953700  1.0  -0.6094
  O  O910  1  0.056500  0.588400  0.959600  1.0  -0.5461
  O  O911  1  0.532700  0.150300  0.453700  1.0  -0.6094
  O  O912  1  0.556500  0.088400  0.459600  1.0  -0.5461
  O  O913  1  0.032700  0.349700  0.046300  1.0  -0.6088
  O  O914  1  0.056500  0.411600  0.040400  1.0  -0.546
  O  O915  1  0.532700  0.849700  0.546300  1.0  -0.6088
  O  O916  1  0.556500  0.911600  0.540400  1.0  -0.546
  O  O917  1  0.967300  0.650300  0.046300  1.0  -0.6086
  O  O918  1  0.943500  0.588400  0.040400  1.0  -0.5456
  O  O919  1  0.467300  0.150300  0.546300  1.0  -0.6086
  O  O920  1  0.443500  0.088400  0.540400  1.0  -0.5456
  O  O921  1  0.967300  0.349700  0.953700  1.0  -0.6082
  O  O922  1  0.943500  0.411600  0.959600  1.0  -0.5463
  O  O923  1  0.467300  0.849700  0.453700  1.0  -0.6082
  O  O924  1  0.443500  0.911600  0.459600  1.0  -0.5463
