# generated using pymatgen
data_Mn2H15C24NO8
_symmetry_space_group_name_H-M   'P 1'
_cell_length_a   38.98810000
_cell_length_b   38.98810000
_cell_length_c   22.29620000
_cell_angle_alpha   90.00000000
_cell_angle_beta   90.00000000
_cell_angle_gamma   120.00000000
_symmetry_Int_Tables_number   1
_chemical_formula_structural   Mn2H15C24NO8
_chemical_formula_sum   'Mn36 H270 C432 N18 O144'
_cell_volume   29351.18404993
_cell_formula_units_Z   18
loop_
 _symmetry_equiv_pos_site_id
 _symmetry_equiv_pos_as_xyz
  1  'x, y, z'
loop_
 _atom_site_type_symbol
 _atom_site_label
 _atom_site_symmetry_multiplicity
 _atom_site_fract_x
 _atom_site_fract_y
 _atom_site_fract_z
 _atom_site_occupancy
 _atom_site_charge
  Mn  Mn1  1  0.663920  0.738240  0.092360  1.0  1.1208
  Mn  Mn2  1  0.580010  0.655630  0.033780  1.0  1.079
  Mn  Mn3  1  0.330590  0.071570  0.425690  1.0  1.1219
  Mn  Mn4  1  0.246670  0.988970  0.367120  1.0  1.0779
  Mn  Mn5  1  0.997250  0.404900  0.759030  1.0  1.1208
  Mn  Mn6  1  0.913340  0.322300  0.700450  1.0  1.079
  Mn  Mn7  1  0.261760  0.925680  0.092360  1.0  1.1241
  Mn  Mn8  1  0.344370  0.924370  0.033780  1.0  1.0782
  Mn  Mn9  1  0.928430  0.259010  0.425690  1.0  1.1243
  Mn  Mn10  1  0.011030  0.257710  0.367120  1.0  1.0791
  Mn  Mn11  1  0.595100  0.592350  0.759030  1.0  1.124
  Mn  Mn12  1  0.677700  0.591040  0.700450  1.0  1.0779
  Mn  Mn13  1  0.074320  0.336080  0.092360  1.0  1.1185
  Mn  Mn14  1  0.075630  0.419990  0.033780  1.0  1.0801
  Mn  Mn15  1  0.740990  0.669410  0.425690  1.0  1.1185
  Mn  Mn16  1  0.742290  0.753330  0.367120  1.0  1.0792
  Mn  Mn17  1  0.407650  0.002750  0.759030  1.0  1.1185
  Mn  Mn18  1  0.408960  0.086660  0.700450  1.0  1.0799
  Mn  Mn19  1  0.261760  0.336080  0.592360  1.0  1.1201
  Mn  Mn20  1  0.344370  0.419990  0.533780  1.0  1.0786
  Mn  Mn21  1  0.928430  0.669410  0.925690  1.0  1.1201
  Mn  Mn22  1  0.011030  0.753330  0.867120  1.0  1.0776
  Mn  Mn23  1  0.595100  0.002750  0.259030  1.0  1.12
  Mn  Mn24  1  0.677700  0.086660  0.200450  1.0  1.0786
  Mn  Mn25  1  0.074320  0.738240  0.592360  1.0  1.1222
  Mn  Mn26  1  0.075630  0.655630  0.533780  1.0  1.0786
  Mn  Mn27  1  0.740990  0.071570  0.925690  1.0  1.1225
  Mn  Mn28  1  0.742290  0.988970  0.867120  1.0  1.0795
  Mn  Mn29  1  0.407650  0.404900  0.259030  1.0  1.1222
  Mn  Mn30  1  0.408960  0.322300  0.200450  1.0  1.0782
  Mn  Mn31  1  0.663920  0.925680  0.592360  1.0  1.1158
  Mn  Mn32  1  0.580010  0.924370  0.533780  1.0  1.0775
  Mn  Mn33  1  0.330590  0.259010  0.925690  1.0  1.1158
  Mn  Mn34  1  0.246670  0.257710  0.867120  1.0  1.0768
  Mn  Mn35  1  0.997250  0.592350  0.259030  1.0  1.1158
  Mn  Mn36  1  0.913340  0.591040  0.200450  1.0  1.0773
  H  H37  1  0.547800  0.741900  0.947500  1.0  0.1155
  H  H38  1  0.532900  0.791100  0.927800  1.0  0.1053
  H  H39  1  0.587000  0.847900  0.075200  1.0  0.0883
  H  H40  1  0.605100  0.801300  0.097000  1.0  0.1139
  H  H41  1  0.560500  0.869800  0.950600  1.0  0.0944
  H  H42  1  0.518500  0.842200  0.977700  1.0  0.0943
  H  H43  1  0.540600  0.885500  0.116100  1.0  0.0868
  H  H44  1  0.514800  0.844400  0.085700  1.0  0.095
  H  H45  1  0.468100  0.862300  0.150800  1.0  0.1057
  H  H46  1  0.416300  0.873500  0.135800  1.0  0.0932
  H  H47  1  0.456800  0.918200  0.975100  1.0  0.1163
  H  H48  1  0.507900  0.904900  0.989200  1.0  0.0934
  H  H49  1  0.576700  0.943700  0.104900  1.0  0.1092
  H  H50  1  0.684200  0.017700  0.037500  1.0  0.109
  H  H51  1  0.618200  0.910500  0.966200  1.0  0.1059
  H  H52  1  0.214470  0.075230  0.280830  1.0  0.1155
  H  H53  1  0.199570  0.124430  0.261130  1.0  0.1055
  H  H54  1  0.253670  0.181230  0.408530  1.0  0.0883
  H  H55  1  0.271770  0.134630  0.430330  1.0  0.1139
  H  H56  1  0.227170  0.203130  0.283930  1.0  0.0944
  H  H57  1  0.185170  0.175530  0.311030  1.0  0.0943
  H  H58  1  0.207270  0.218830  0.449430  1.0  0.0868
  H  H59  1  0.181470  0.177730  0.419030  1.0  0.095
  H  H60  1  0.134770  0.195630  0.484130  1.0  0.1043
  H  H61  1  0.082970  0.206830  0.469130  1.0  0.0932
  H  H62  1  0.123470  0.251530  0.308430  1.0  0.1163
  H  H63  1  0.174570  0.238230  0.322530  1.0  0.0934
  H  H64  1  0.243370  0.277030  0.438230  1.0  0.1092
  H  H65  1  0.350870  0.351030  0.370830  1.0  0.1089
  H  H66  1  0.284870  0.243830  0.299530  1.0  0.1059
  H  H67  1  0.881130  0.408570  0.614170  1.0  0.1155
  H  H68  1  0.866230  0.457770  0.594470  1.0  0.1053
  H  H69  1  0.920330  0.514570  0.741870  1.0  0.0883
  H  H70  1  0.938430  0.467970  0.763670  1.0  0.1139
  H  H71  1  0.893830  0.536470  0.617270  1.0  0.0944
  H  H72  1  0.851830  0.508870  0.644370  1.0  0.0943
  H  H73  1  0.873930  0.552170  0.782770  1.0  0.0868
  H  H74  1  0.848130  0.511070  0.752370  1.0  0.095
  H  H75  1  0.801430  0.528970  0.817470  1.0  0.1057
  H  H76  1  0.749630  0.540170  0.802470  1.0  0.0932
  H  H77  1  0.790130  0.584870  0.641770  1.0  0.1163
  H  H78  1  0.841230  0.571570  0.655870  1.0  0.0934
  H  H79  1  0.910030  0.610370  0.771570  1.0  0.1092
  H  H80  1  0.017530  0.684370  0.704170  1.0  0.109
  H  H81  1  0.951530  0.577170  0.632870  1.0  0.1059
  H  H82  1  0.258100  0.805900  0.947500  1.0  0.1169
  H  H83  1  0.208900  0.741800  0.927800  1.0  0.1061
  H  H84  1  0.152100  0.739100  0.075200  1.0  0.0889
  H  H85  1  0.198700  0.803800  0.097000  1.0  0.1142
  H  H86  1  0.130200  0.690700  0.950600  1.0  0.0947
  H  H87  1  0.157800  0.676300  0.977700  1.0  0.0953
  H  H88  1  0.114500  0.655100  0.116100  1.0  0.086
  H  H89  1  0.155600  0.670400  0.085700  1.0  0.0965
  H  H90  1  0.137700  0.605800  0.150800  1.0  0.105
  H  H91  1  0.126500  0.542800  0.135800  1.0  0.0933
  H  H92  1  0.081800  0.538600  0.975100  1.0  0.1161
  H  H93  1  0.095100  0.603000  0.989200  1.0  0.0942
  H  H94  1  0.056300  0.633000  0.104900  1.0  0.1097
  H  H95  1  0.982300  0.666500  0.037500  1.0  0.1071
  H  H96  1  0.089500  0.707700  0.966200  1.0  0.1061
  H  H97  1  0.924770  0.139230  0.280830  1.0  0.1169
  H  H98  1  0.875570  0.075130  0.261130  1.0  0.106
  H  H99  1  0.818770  0.072430  0.408530  1.0  0.0889
  H  H100  1  0.865370  0.137130  0.430330  1.0  0.1142
  H  H101  1  0.796870  0.024030  0.283930  1.0  0.0947
  H  H102  1  0.824470  0.009630  0.311030  1.0  0.0992
  H  H103  1  0.781170  0.988430  0.449430  1.0  0.086
  H  H104  1  0.822270  0.003730  0.419030  1.0  0.0927
  H  H105  1  0.804370  0.939130  0.484130  1.0  0.1046
  H  H106  1  0.793170  0.876130  0.469130  1.0  0.0933
  H  H107  1  0.748470  0.871930  0.308430  1.0  0.1161
  H  H108  1  0.761770  0.936330  0.322530  1.0  0.0942
  H  H109  1  0.722970  0.966330  0.438230  1.0  0.1097
  H  H110  1  0.648970  0.999830  0.370830  1.0  0.1071
  H  H111  1  0.756170  0.041030  0.299530  1.0  0.1061
  H  H112  1  0.591430  0.472570  0.614170  1.0  0.1169
  H  H113  1  0.542230  0.408470  0.594470  1.0  0.1061
  H  H114  1  0.485430  0.405770  0.741870  1.0  0.0889
  H  H115  1  0.532030  0.470470  0.763670  1.0  0.1142
  H  H116  1  0.463530  0.357370  0.617270  1.0  0.0948
  H  H117  1  0.491130  0.342970  0.644370  1.0  0.0953
  H  H118  1  0.447830  0.321770  0.782770  1.0  0.086
  H  H119  1  0.488930  0.337070  0.752370  1.0  0.0965
  H  H120  1  0.471030  0.272470  0.817470  1.0  0.105
  H  H121  1  0.459830  0.209470  0.802470  1.0  0.0933
  H  H122  1  0.415130  0.205270  0.641770  1.0  0.1161
  H  H123  1  0.428430  0.269670  0.655870  1.0  0.0942
  H  H124  1  0.389630  0.299670  0.771570  1.0  0.1097
  H  H125  1  0.315630  0.333170  0.704170  1.0  0.1071
  H  H126  1  0.422830  0.374370  0.632870  1.0  0.1061
  H  H127  1  0.194100  0.452200  0.947500  1.0  0.1168
  H  H128  1  0.258200  0.467100  0.927800  1.0  0.105
  H  H129  1  0.260900  0.413000  0.075200  1.0  0.0894
  H  H130  1  0.196200  0.394900  0.097000  1.0  0.1137
  H  H131  1  0.309300  0.439500  0.950600  1.0  0.094
  H  H132  1  0.323700  0.481500  0.977700  1.0  0.0977
  H  H133  1  0.344900  0.459400  0.116100  1.0  0.0858
  H  H134  1  0.329600  0.485200  0.085700  1.0  0.0986
  H  H135  1  0.394200  0.531900  0.150800  1.0  0.1049
  H  H136  1  0.457200  0.583700  0.135800  1.0  0.0936
  H  H137  1  0.461400  0.543200  0.975100  1.0  0.1166
  H  H138  1  0.397000  0.492100  0.989200  1.0  0.0937
  H  H139  1  0.367000  0.423300  0.104900  1.0  0.109
  H  H140  1  0.333500  0.315800  0.037500  1.0  0.1087
  H  H141  1  0.292300  0.381800  0.966200  1.0  0.1059
  H  H142  1  0.860770  0.785530  0.280830  1.0  0.1168
  H  H143  1  0.924870  0.800430  0.261130  1.0  0.1045
  H  H144  1  0.927570  0.746330  0.408530  1.0  0.0894
  H  H145  1  0.862870  0.728230  0.430330  1.0  0.1137
  H  H146  1  0.975970  0.772830  0.283930  1.0  0.094
  H  H147  1  0.990370  0.814830  0.311030  1.0  0.1022
  H  H148  1  0.011570  0.792730  0.449430  1.0  0.0858
  H  H149  1  0.996270  0.818530  0.419030  1.0  0.0945
  H  H150  1  0.060870  0.865230  0.484130  1.0  0.1037
  H  H151  1  0.123870  0.917030  0.469130  1.0  0.0935
  H  H152  1  0.128070  0.876530  0.308430  1.0  0.1166
  H  H153  1  0.063670  0.825430  0.322530  1.0  0.0937
  H  H154  1  0.033670  0.756630  0.438230  1.0  0.109
  H  H155  1  0.000170  0.649130  0.370830  1.0  0.1087
  H  H156  1  0.958970  0.715130  0.299530  1.0  0.1059
  H  H157  1  0.527430  0.118870  0.614170  1.0  0.1168
  H  H158  1  0.591530  0.133770  0.594470  1.0  0.105
  H  H159  1  0.594230  0.079670  0.741870  1.0  0.0894
  H  H160  1  0.529530  0.061570  0.763670  1.0  0.1137
  H  H161  1  0.642630  0.106170  0.617270  1.0  0.094
  H  H162  1  0.657030  0.148170  0.644370  1.0  0.0977
  H  H163  1  0.678230  0.126070  0.782770  1.0  0.0858
  H  H164  1  0.662930  0.151870  0.752370  1.0  0.0986
  H  H165  1  0.727530  0.198570  0.817470  1.0  0.1049
  H  H166  1  0.790530  0.250370  0.802470  1.0  0.0936
  H  H167  1  0.794730  0.209870  0.641770  1.0  0.1166
  H  H168  1  0.730330  0.158770  0.655870  1.0  0.0937
  H  H169  1  0.700330  0.089970  0.771570  1.0  0.109
  H  H170  1  0.666830  0.982470  0.704170  1.0  0.1087
  H  H171  1  0.625630  0.048470  0.632870  1.0  0.1059
  H  H172  1  0.258100  0.452200  0.447500  1.0  0.1167
  H  H173  1  0.208900  0.467100  0.427800  1.0  0.1051
  H  H174  1  0.152100  0.413000  0.575200  1.0  0.0882
  H  H175  1  0.198700  0.394900  0.597000  1.0  0.1134
  H  H176  1  0.130200  0.439500  0.450600  1.0  0.0944
  H  H177  1  0.157800  0.481500  0.477700  1.0  0.0971
  H  H178  1  0.114500  0.459400  0.616100  1.0  0.0852
  H  H179  1  0.155600  0.485200  0.585700  1.0  0.0948
  H  H180  1  0.137700  0.531900  0.650800  1.0  0.1049
  H  H181  1  0.126500  0.583700  0.635800  1.0  0.0932
  H  H182  1  0.081800  0.543200  0.475100  1.0  0.1166
  H  H183  1  0.095100  0.492100  0.489200  1.0  0.0928
  H  H184  1  0.056300  0.423300  0.604900  1.0  0.1098
  H  H185  1  0.982300  0.315800  0.537500  1.0  0.1087
  H  H186  1  0.089500  0.381800  0.466200  1.0  0.1065
  H  H187  1  0.924770  0.785530  0.780830  1.0  0.1167
  H  H188  1  0.875570  0.800430  0.761130  1.0  0.1054
  H  H189  1  0.818770  0.746330  0.908530  1.0  0.0882
  H  H190  1  0.865370  0.728230  0.930330  1.0  0.1134
  H  H191  1  0.796870  0.772830  0.783930  1.0  0.0944
  H  H192  1  0.824470  0.814830  0.811030  1.0  0.0971
  H  H193  1  0.781170  0.792730  0.949430  1.0  0.0852
  H  H194  1  0.822270  0.818530  0.919030  1.0  0.0948
  H  H195  1  0.804370  0.865230  0.984130  1.0  0.1035
  H  H196  1  0.793170  0.917030  0.969130  1.0  0.0932
  H  H197  1  0.748470  0.876530  0.808430  1.0  0.1166
  H  H198  1  0.761770  0.825430  0.822530  1.0  0.0928
  H  H199  1  0.722970  0.756630  0.938230  1.0  0.1098
  H  H200  1  0.648970  0.649130  0.870830  1.0  0.1086
  H  H201  1  0.756170  0.715130  0.799530  1.0  0.1065
  H  H202  1  0.591430  0.118870  0.114170  1.0  0.1167
  H  H203  1  0.542230  0.133770  0.094470  1.0  0.1051
  H  H204  1  0.485430  0.079670  0.241870  1.0  0.0882
  H  H205  1  0.532030  0.061570  0.263670  1.0  0.1134
  H  H206  1  0.463530  0.106170  0.117270  1.0  0.0944
  H  H207  1  0.491130  0.148170  0.144370  1.0  0.0971
  H  H208  1  0.447830  0.126070  0.282770  1.0  0.0852
  H  H209  1  0.488930  0.151870  0.252370  1.0  0.0948
  H  H210  1  0.471030  0.198570  0.317470  1.0  0.1049
  H  H211  1  0.459830  0.250370  0.302470  1.0  0.0933
  H  H212  1  0.415130  0.209870  0.141770  1.0  0.1166
  H  H213  1  0.428430  0.158770  0.155870  1.0  0.0928
  H  H214  1  0.389630  0.089970  0.271570  1.0  0.1098
  H  H215  1  0.315630  0.982470  0.204170  1.0  0.1087
  H  H216  1  0.422830  0.048470  0.132870  1.0  0.1065
  H  H217  1  0.194100  0.741900  0.447500  1.0  0.1156
  H  H218  1  0.258200  0.791100  0.427800  1.0  0.1051
  H  H219  1  0.260900  0.847900  0.575200  1.0  0.0889
  H  H220  1  0.196200  0.801300  0.597000  1.0  0.1141
  H  H221  1  0.309300  0.869800  0.450600  1.0  0.0948
  H  H222  1  0.323700  0.842200  0.477700  1.0  0.0952
  H  H223  1  0.344900  0.885500  0.616100  1.0  0.0862
  H  H224  1  0.329600  0.844400  0.585700  1.0  0.0955
  H  H225  1  0.394200  0.862300  0.650800  1.0  0.1054
  H  H226  1  0.457200  0.873500  0.635800  1.0  0.0931
  H  H227  1  0.461400  0.918200  0.475100  1.0  0.1163
  H  H228  1  0.397000  0.904900  0.489200  1.0  0.0946
  H  H229  1  0.367000  0.943700  0.604900  1.0  0.1092
  H  H230  1  0.333500  0.017700  0.537500  1.0  0.1093
  H  H231  1  0.292300  0.910500  0.466200  1.0  0.1059
  H  H232  1  0.860770  0.075230  0.780830  1.0  0.1156
  H  H233  1  0.924870  0.124430  0.761130  1.0  0.1052
  H  H234  1  0.927570  0.181230  0.908530  1.0  0.0889
  H  H235  1  0.862870  0.134630  0.930330  1.0  0.1141
  H  H236  1  0.975970  0.203130  0.783930  1.0  0.0948
  H  H237  1  0.990370  0.175530  0.811030  1.0  0.0994
  H  H238  1  0.011570  0.218830  0.949430  1.0  0.0862
  H  H239  1  0.996270  0.177730  0.919030  1.0  0.0917
  H  H240  1  0.060870  0.195630  0.984130  1.0  0.1051
  H  H241  1  0.123870  0.206830  0.969130  1.0  0.0931
  H  H242  1  0.128070  0.251530  0.808430  1.0  0.1163
  H  H243  1  0.063670  0.238230  0.822530  1.0  0.0946
  H  H244  1  0.033670  0.277030  0.938230  1.0  0.1092
  H  H245  1  0.000170  0.351030  0.870830  1.0  0.1093
  H  H246  1  0.958970  0.243830  0.799530  1.0  0.1059
  H  H247  1  0.527430  0.408570  0.114170  1.0  0.1156
  H  H248  1  0.591530  0.457770  0.094470  1.0  0.1051
  H  H249  1  0.594230  0.514570  0.241870  1.0  0.0889
  H  H250  1  0.529530  0.467970  0.263670  1.0  0.1141
  H  H251  1  0.642630  0.536470  0.117270  1.0  0.0949
  H  H252  1  0.657030  0.508870  0.144370  1.0  0.0952
  H  H253  1  0.678230  0.552170  0.282770  1.0  0.0861
  H  H254  1  0.662930  0.511070  0.252370  1.0  0.0955
  H  H255  1  0.727530  0.528970  0.317470  1.0  0.1054
  H  H256  1  0.790530  0.540170  0.302470  1.0  0.0931
  H  H257  1  0.794730  0.584870  0.141770  1.0  0.1163
  H  H258  1  0.730330  0.571570  0.155870  1.0  0.0946
  H  H259  1  0.700330  0.610370  0.271570  1.0  0.1092
  H  H260  1  0.666830  0.684370  0.204170  1.0  0.1093
  H  H261  1  0.625630  0.577170  0.132870  1.0  0.1059
  H  H262  1  0.547800  0.805900  0.447500  1.0  0.1166
  H  H263  1  0.532900  0.741800  0.427800  1.0  0.1056
  H  H264  1  0.587000  0.739100  0.575200  1.0  0.0892
  H  H265  1  0.605100  0.803800  0.597000  1.0  0.1138
  H  H266  1  0.560500  0.690700  0.450600  1.0  0.094
  H  H267  1  0.518500  0.676300  0.477700  1.0  0.095
  H  H268  1  0.540600  0.655100  0.616100  1.0  0.0865
  H  H269  1  0.514800  0.670400  0.585700  1.0  0.0984
  H  H270  1  0.468100  0.605800  0.650800  1.0  0.1055
  H  H271  1  0.416300  0.542800  0.635800  1.0  0.0936
  H  H272  1  0.456800  0.538600  0.475100  1.0  0.116
  H  H273  1  0.507900  0.603000  0.489200  1.0  0.0944
  H  H274  1  0.576700  0.633000  0.604900  1.0  0.1094
  H  H275  1  0.684200  0.666500  0.537500  1.0  0.1078
  H  H276  1  0.618200  0.707700  0.466200  1.0  0.1064
  H  H277  1  0.214470  0.139230  0.780830  1.0  0.1166
  H  H278  1  0.199570  0.075130  0.761130  1.0  0.105
  H  H279  1  0.253670  0.072430  0.908530  1.0  0.0892
  H  H280  1  0.271770  0.137130  0.930330  1.0  0.1138
  H  H281  1  0.227170  0.024030  0.783930  1.0  0.094
  H  H282  1  0.185170  0.009630  0.811030  1.0  0.099
  H  H283  1  0.207270  0.988430  0.949430  1.0  0.0865
  H  H284  1  0.181470  0.003730  0.919030  1.0  0.0955
  H  H285  1  0.134770  0.939130  0.984130  1.0  0.1045
  H  H286  1  0.082970  0.876130  0.969130  1.0  0.0936
  H  H287  1  0.123470  0.871930  0.808430  1.0  0.116
  H  H288  1  0.174570  0.936330  0.822530  1.0  0.0944
  H  H289  1  0.243370  0.966330  0.938230  1.0  0.1094
  H  H290  1  0.350870  0.999830  0.870830  1.0  0.1078
  H  H291  1  0.284870  0.041030  0.799530  1.0  0.1064
  H  H292  1  0.881130  0.472570  0.114170  1.0  0.1166
  H  H293  1  0.866230  0.408470  0.094470  1.0  0.1056
  H  H294  1  0.920330  0.405770  0.241870  1.0  0.0892
  H  H295  1  0.938430  0.470470  0.263670  1.0  0.1138
  H  H296  1  0.893830  0.357370  0.117270  1.0  0.0939
  H  H297  1  0.851830  0.342970  0.144370  1.0  0.095
  H  H298  1  0.873930  0.321770  0.282770  1.0  0.0864
  H  H299  1  0.848130  0.337070  0.252370  1.0  0.0984
  H  H300  1  0.801430  0.272470  0.317470  1.0  0.1055
  H  H301  1  0.749630  0.209470  0.302470  1.0  0.0936
  H  H302  1  0.790130  0.205270  0.141770  1.0  0.116
  H  H303  1  0.841230  0.269670  0.155870  1.0  0.0944
  H  H304  1  0.910030  0.299670  0.271570  1.0  0.1094
  H  H305  1  0.017530  0.333170  0.204170  1.0  0.1078
  H  H306  1  0.951530  0.374370  0.132870  1.0  0.1064
  C  C307  1  0.588460  0.735160  0.042670  1.0  0.7125
  C  C308  1  0.577540  0.766140  0.026330  1.0  -0.1424
  C  C309  1  0.555820  0.763160  0.973640  1.0  -0.09
  C  C310  1  0.547000  0.792710  0.962340  1.0  -0.0835
  C  C311  1  0.558180  0.824280  0.999850  1.0  0.0659
  C  C312  1  0.579270  0.826580  0.049370  1.0  -0.1317
  C  C313  1  0.589840  0.798370  0.063190  1.0  -0.0858
  C  C314  1  0.546600  0.855630  0.986490  1.0  -0.0994
  C  C315  1  0.526540  0.872680  0.079630  1.0  -0.0463
  C  C316  1  0.493900  0.881520  0.071910  1.0  0.0815
  C  C317  1  0.466250  0.873140  0.114640  1.0  -0.1562
  C  C318  1  0.435180  0.880410  0.105780  1.0  -0.0305
  C  C319  1  0.431570  0.896750  0.056110  1.0  -0.1547
  C  C320  1  0.458820  0.906630  0.010500  1.0  -0.083
  C  C321  1  0.489380  0.898570  0.019670  1.0  -0.1322
  C  C322  1  0.590750  0.920760  0.034370  1.0  0.162
  C  C323  1  0.596720  0.949090  0.077330  1.0  -0.1531
  C  C324  1  0.631220  0.984730  0.080100  1.0  -0.1428
  C  C325  1  0.660930  0.993280  0.037360  1.0  -0.0033
  C  C326  1  0.655110  0.965200  0.995550  1.0  -0.1414
  C  C327  1  0.621030  0.929330  0.994300  1.0  -0.1653
  C  C328  1  0.397600  0.905370  0.048510  1.0  0.6374
  C  C329  1  0.686690  0.973740  0.949210  1.0  0.664
  C  C330  1  0.636920  0.013810  0.129450  1.0  0.7352
  C  C331  1  0.255130  0.068490  0.376000  1.0  0.7125
  C  C332  1  0.244210  0.099470  0.359660  1.0  -0.1424
  C  C333  1  0.222490  0.096490  0.306970  1.0  -0.09
  C  C334  1  0.213670  0.126040  0.295670  1.0  -0.0835
  C  C335  1  0.224850  0.157610  0.333180  1.0  0.0659
  C  C336  1  0.245940  0.159910  0.382700  1.0  -0.1317
  C  C337  1  0.256510  0.131700  0.396520  1.0  -0.0857
  C  C338  1  0.213270  0.188960  0.319820  1.0  -0.0994
  C  C339  1  0.193210  0.206010  0.412960  1.0  -0.0463
  C  C340  1  0.160570  0.214850  0.405240  1.0  0.0815
  C  C341  1  0.132920  0.206470  0.447970  1.0  -0.1562
  C  C342  1  0.101850  0.213740  0.439110  1.0  -0.0305
  C  C343  1  0.098240  0.230080  0.389440  1.0  -0.1547
  C  C344  1  0.125490  0.239960  0.343830  1.0  -0.083
  C  C345  1  0.156050  0.231900  0.353000  1.0  -0.1322
  C  C346  1  0.257420  0.254090  0.367700  1.0  0.162
  C  C347  1  0.263390  0.282420  0.410660  1.0  -0.1531
  C  C348  1  0.297890  0.318060  0.413430  1.0  -0.1425
  C  C349  1  0.327600  0.326610  0.370690  1.0  -0.0033
  C  C350  1  0.321780  0.298530  0.328880  1.0  -0.1416
  C  C351  1  0.287700  0.262660  0.327630  1.0  -0.1653
  C  C352  1  0.064270  0.238700  0.381840  1.0  0.6374
  C  C353  1  0.353360  0.307070  0.282540  1.0  0.664
  C  C354  1  0.303590  0.347140  0.462780  1.0  0.7352
  C  C355  1  0.921790  0.401830  0.709340  1.0  0.7125
  C  C356  1  0.910870  0.432810  0.693000  1.0  -0.1424
  C  C357  1  0.889150  0.429830  0.640310  1.0  -0.09
  C  C358  1  0.880330  0.459380  0.629010  1.0  -0.0835
  C  C359  1  0.891510  0.490950  0.666520  1.0  0.0659
  C  C360  1  0.912600  0.493250  0.716040  1.0  -0.1317
  C  C361  1  0.923170  0.465040  0.729860  1.0  -0.0858
  C  C362  1  0.879930  0.522300  0.653160  1.0  -0.0994
  C  C363  1  0.859870  0.539350  0.746300  1.0  -0.0463
  C  C364  1  0.827230  0.548190  0.738580  1.0  0.0815
  C  C365  1  0.799580  0.539810  0.781310  1.0  -0.1562
  C  C366  1  0.768510  0.547080  0.772450  1.0  -0.0305
  C  C367  1  0.764900  0.563420  0.722780  1.0  -0.1547
  C  C368  1  0.792150  0.573300  0.677170  1.0  -0.0831
  C  C369  1  0.822710  0.565240  0.686340  1.0  -0.1322
  C  C370  1  0.924080  0.587430  0.701040  1.0  0.162
  C  C371  1  0.930050  0.615760  0.744000  1.0  -0.1531
  C  C372  1  0.964550  0.651400  0.746770  1.0  -0.1428
  C  C373  1  0.994260  0.659950  0.704030  1.0  -0.0033
  C  C374  1  0.988440  0.631870  0.662220  1.0  -0.1414
  C  C375  1  0.954360  0.596000  0.660970  1.0  -0.1653
  C  C376  1  0.730930  0.572040  0.715180  1.0  0.6379
  C  C377  1  0.020020  0.640410  0.615880  1.0  0.664
  C  C378  1  0.970250  0.680480  0.796120  1.0  0.7352
  C  C379  1  0.264840  0.853300  0.042670  1.0  0.7148
  C  C380  1  0.233860  0.811400  0.026330  1.0  -0.1427
  C  C381  1  0.236840  0.792660  0.973640  1.0  -0.0916
  C  C382  1  0.207290  0.754290  0.962340  1.0  -0.081
  C  C383  1  0.175720  0.733900  0.999850  1.0  0.0668
  C  C384  1  0.173420  0.752690  0.049370  1.0  -0.1335
  C  C385  1  0.201630  0.791470  0.063190  1.0  -0.0857
  C  C386  1  0.144370  0.690970  0.986490  1.0  -0.0989
  C  C387  1  0.127320  0.653860  0.079630  1.0  -0.0426
  C  C388  1  0.118480  0.612380  0.071910  1.0  0.0827
  C  C389  1  0.126860  0.593110  0.114640  1.0  -0.1541
  C  C390  1  0.119590  0.554770  0.105780  1.0  -0.031
  C  C391  1  0.103250  0.534820  0.056110  1.0  -0.1535
  C  C392  1  0.093370  0.552190  0.010500  1.0  -0.0812
  C  C393  1  0.101430  0.590810  0.019670  1.0  -0.1336
  C  C394  1  0.079240  0.669990  0.034370  1.0  0.1652
  C  C395  1  0.050910  0.647630  0.077330  1.0  -0.1518
  C  C396  1  0.015270  0.646490  0.080100  1.0  -0.1446
  C  C397  1  0.006720  0.667650  0.037360  1.0  -0.004
  C  C398  1  0.034800  0.689910  0.995550  1.0  -0.1418
  C  C399  1  0.070670  0.691700  0.994300  1.0  -0.1615
  C  C400  1  0.094630  0.492230  0.048510  1.0  0.6394
  C  C401  1  0.026260  0.712950  0.949210  1.0  0.6649
  C  C402  1  0.986190  0.623110  0.129450  1.0  0.7325
  C  C403  1  0.931510  0.186630  0.376000  1.0  0.7148
  C  C404  1  0.900530  0.144730  0.359660  1.0  -0.1427
  C  C405  1  0.903510  0.125990  0.306970  1.0  -0.0916
  C  C406  1  0.873960  0.087620  0.295670  1.0  -0.081
  C  C407  1  0.842390  0.067230  0.333180  1.0  0.0668
  C  C408  1  0.840090  0.086020  0.382700  1.0  -0.1335
  C  C409  1  0.868300  0.124800  0.396520  1.0  -0.0857
  C  C410  1  0.811040  0.024300  0.319820  1.0  -0.0989
  C  C411  1  0.793990  0.987190  0.412960  1.0  -0.0426
  C  C412  1  0.785150  0.945710  0.405240  1.0  0.0827
  C  C413  1  0.793530  0.926440  0.447970  1.0  -0.1541
  C  C414  1  0.786260  0.888100  0.439110  1.0  -0.031
  C  C415  1  0.769920  0.868150  0.389440  1.0  -0.1535
  C  C416  1  0.760040  0.885520  0.343830  1.0  -0.0812
  C  C417  1  0.768100  0.924140  0.353000  1.0  -0.1336
  C  C418  1  0.745910  0.003320  0.367700  1.0  0.1652
  C  C419  1  0.717580  0.980960  0.410660  1.0  -0.1518
  C  C420  1  0.681940  0.979820  0.413430  1.0  -0.145
  C  C421  1  0.673390  0.000980  0.370690  1.0  -0.004
  C  C422  1  0.701470  0.023240  0.328880  1.0  -0.1418
  C  C423  1  0.737340  0.025030  0.327630  1.0  -0.1615
  C  C424  1  0.761300  0.825560  0.381840  1.0  0.6397
  C  C425  1  0.692930  0.046280  0.282540  1.0  0.6649
  C  C426  1  0.652860  0.956440  0.462780  1.0  0.7327
  C  C427  1  0.598170  0.519970  0.709340  1.0  0.7148
  C  C428  1  0.567190  0.478070  0.693000  1.0  -0.1427
  C  C429  1  0.570170  0.459330  0.640310  1.0  -0.0916
  C  C430  1  0.540620  0.420960  0.629010  1.0  -0.081
  C  C431  1  0.509050  0.400570  0.666520  1.0  0.0668
  C  C432  1  0.506750  0.419360  0.716040  1.0  -0.1335
  C  C433  1  0.534960  0.458140  0.729860  1.0  -0.0857
  C  C434  1  0.477700  0.357640  0.653160  1.0  -0.0989
  C  C435  1  0.460650  0.320530  0.746300  1.0  -0.0426
  C  C436  1  0.451810  0.279050  0.738580  1.0  0.0827
  C  C437  1  0.460190  0.259780  0.781310  1.0  -0.1541
  C  C438  1  0.452920  0.221440  0.772450  1.0  -0.0308
  C  C439  1  0.436580  0.201490  0.722780  1.0  -0.1535
  C  C440  1  0.426700  0.218860  0.677170  1.0  -0.0812
  C  C441  1  0.434760  0.257480  0.686340  1.0  -0.1336
  C  C442  1  0.412570  0.336660  0.701040  1.0  0.1652
  C  C443  1  0.384240  0.314300  0.744000  1.0  -0.1518
  C  C444  1  0.348600  0.313160  0.746770  1.0  -0.1446
  C  C445  1  0.340050  0.334320  0.704030  1.0  -0.004
  C  C446  1  0.368130  0.356580  0.662220  1.0  -0.1418
  C  C447  1  0.404000  0.358370  0.660970  1.0  -0.1615
  C  C448  1  0.427960  0.158900  0.715180  1.0  0.6394
  C  C449  1  0.359590  0.379620  0.615880  1.0  0.6649
  C  C450  1  0.319520  0.289780  0.796120  1.0  0.7325
  C  C451  1  0.146700  0.411540  0.042670  1.0  0.7143
  C  C452  1  0.188600  0.422460  0.026330  1.0  -0.141
  C  C453  1  0.207340  0.444180  0.973640  1.0  -0.0943
  C  C454  1  0.245710  0.453000  0.962340  1.0  -0.0812
  C  C455  1  0.266100  0.441820  0.999850  1.0  0.0657
  C  C456  1  0.247310  0.420730  0.049370  1.0  -0.1346
  C  C457  1  0.208530  0.410160  0.063190  1.0  -0.0858
  C  C458  1  0.309030  0.453400  0.986490  1.0  -0.1001
  C  C459  1  0.346140  0.473460  0.079630  1.0  -0.0433
  C  C460  1  0.387620  0.506100  0.071910  1.0  0.0819
  C  C461  1  0.406890  0.533750  0.114640  1.0  -0.156
  C  C462  1  0.445230  0.564820  0.105780  1.0  -0.0332
  C  C463  1  0.465180  0.568430  0.056110  1.0  -0.1529
  C  C464  1  0.447810  0.541180  0.010500  1.0  -0.0825
  C  C465  1  0.409190  0.510620  0.019670  1.0  -0.1326
  C  C466  1  0.330010  0.409250  0.034370  1.0  0.1649
  C  C467  1  0.352370  0.403280  0.077330  1.0  -0.1542
  C  C468  1  0.353510  0.368780  0.080100  1.0  -0.1451
  C  C469  1  0.332350  0.339070  0.037360  1.0  -0.0032
  C  C470  1  0.310090  0.344890  0.995550  1.0  -0.1403
  C  C471  1  0.308300  0.378970  0.994300  1.0  -0.1612
  C  C472  1  0.507770  0.602400  0.048510  1.0  0.6396
  C  C473  1  0.287050  0.313310  0.949210  1.0  0.6662
  C  C474  1  0.376890  0.363080  0.129450  1.0  0.7315
  C  C475  1  0.813370  0.744870  0.376000  1.0  0.7143
  C  C476  1  0.855270  0.755790  0.359660  1.0  -0.1413
  C  C477  1  0.874010  0.777510  0.306970  1.0  -0.0943
  C  C478  1  0.912380  0.786330  0.295670  1.0  -0.0812
  C  C479  1  0.932770  0.775150  0.333180  1.0  0.0657
  C  C480  1  0.913980  0.754060  0.382700  1.0  -0.1346
  C  C481  1  0.875200  0.743490  0.396520  1.0  -0.0857
  C  C482  1  0.975700  0.786730  0.319820  1.0  -0.1001
  C  C483  1  0.012810  0.806790  0.412960  1.0  -0.0433
  C  C484  1  0.054290  0.839430  0.405240  1.0  0.0819
  C  C485  1  0.073560  0.867080  0.447970  1.0  -0.156
  C  C486  1  0.111900  0.898150  0.439110  1.0  -0.0332
  C  C487  1  0.131850  0.901760  0.389440  1.0  -0.1529
  C  C488  1  0.114480  0.874510  0.343830  1.0  -0.0825
  C  C489  1  0.075860  0.843950  0.353000  1.0  -0.1326
  C  C490  1  0.996680  0.742580  0.367700  1.0  0.1649
  C  C491  1  0.019040  0.736610  0.410660  1.0  -0.1542
  C  C492  1  0.020180  0.702110  0.413430  1.0  -0.1449
  C  C493  1  0.999020  0.672400  0.370690  1.0  -0.0032
  C  C494  1  0.976760  0.678220  0.328880  1.0  -0.1404
  C  C495  1  0.974970  0.712300  0.327630  1.0  -0.1612
  C  C496  1  0.174440  0.935730  0.381840  1.0  0.6399
  C  C497  1  0.953720  0.646640  0.282540  1.0  0.6662
  C  C498  1  0.043560  0.696410  0.462780  1.0  0.7315
  C  C499  1  0.480030  0.078210  0.709340  1.0  0.7143
  C  C500  1  0.521930  0.089130  0.693000  1.0  -0.141
  C  C501  1  0.540670  0.110850  0.640310  1.0  -0.0943
  C  C502  1  0.579040  0.119670  0.629010  1.0  -0.0812
  C  C503  1  0.599430  0.108490  0.666520  1.0  0.0657
  C  C504  1  0.580640  0.087400  0.716040  1.0  -0.1346
  C  C505  1  0.541860  0.076830  0.729860  1.0  -0.0858
  C  C506  1  0.642360  0.120070  0.653160  1.0  -0.1001
  C  C507  1  0.679470  0.140130  0.746300  1.0  -0.0433
  C  C508  1  0.720950  0.172770  0.738580  1.0  0.0819
  C  C509  1  0.740220  0.200420  0.781310  1.0  -0.156
  C  C510  1  0.778560  0.231490  0.772450  1.0  -0.0332
  C  C511  1  0.798510  0.235100  0.722780  1.0  -0.1529
  C  C512  1  0.781140  0.207850  0.677170  1.0  -0.0825
  C  C513  1  0.742520  0.177290  0.686340  1.0  -0.1326
  C  C514  1  0.663340  0.075920  0.701040  1.0  0.1649
  C  C515  1  0.685700  0.069950  0.744000  1.0  -0.1542
  C  C516  1  0.686840  0.035450  0.746770  1.0  -0.1451
  C  C517  1  0.665680  0.005740  0.704030  1.0  -0.0032
  C  C518  1  0.643420  0.011560  0.662220  1.0  -0.1403
  C  C519  1  0.641630  0.045640  0.660970  1.0  -0.1612
  C  C520  1  0.841100  0.269070  0.715180  1.0  0.6396
  C  C521  1  0.620380  0.979980  0.615880  1.0  0.6662
  C  C522  1  0.710220  0.029750  0.796120  1.0  0.7316
  C  C523  1  0.264840  0.411540  0.542670  1.0  0.7138
  C  C524  1  0.233860  0.422460  0.526330  1.0  -0.1407
  C  C525  1  0.236840  0.444180  0.473640  1.0  -0.0937
  C  C526  1  0.207290  0.453000  0.462340  1.0  -0.0824
  C  C527  1  0.175720  0.441820  0.499850  1.0  0.0674
  C  C528  1  0.173420  0.420730  0.549370  1.0  -0.1339
  C  C529  1  0.201630  0.410160  0.563190  1.0  -0.0851
  C  C530  1  0.144370  0.453400  0.486490  1.0  -0.1002
  C  C531  1  0.127320  0.473460  0.579630  1.0  -0.0427
  C  C532  1  0.118480  0.506100  0.571910  1.0  0.0822
  C  C533  1  0.126860  0.533750  0.614640  1.0  -0.1546
  C  C534  1  0.119590  0.564820  0.605780  1.0  -0.0332
  C  C535  1  0.103250  0.568430  0.556110  1.0  -0.1543
  C  C536  1  0.093370  0.541180  0.510500  1.0  -0.0811
  C  C537  1  0.101430  0.510620  0.519670  1.0  -0.132
  C  C538  1  0.079240  0.409250  0.534370  1.0  0.1643
  C  C539  1  0.050910  0.403280  0.577330  1.0  -0.1538
  C  C540  1  0.015270  0.368780  0.580100  1.0  -0.1458
  C  C541  1  0.006720  0.339070  0.537360  1.0  -0.0027
  C  C542  1  0.034800  0.344890  0.495550  1.0  -0.1399
  C  C543  1  0.070670  0.378970  0.494300  1.0  -0.1605
  C  C544  1  0.094630  0.602400  0.548510  1.0  0.6402
  C  C545  1  0.026260  0.313310  0.449210  1.0  0.6652
  C  C546  1  0.986190  0.363080  0.629450  1.0  0.7324
  C  C547  1  0.931510  0.744870  0.876000  1.0  0.7138
  C  C548  1  0.900530  0.755790  0.859660  1.0  -0.1407
  C  C549  1  0.903510  0.777510  0.806970  1.0  -0.0937
  C  C550  1  0.873960  0.786330  0.795670  1.0  -0.0824
  C  C551  1  0.842390  0.775150  0.833180  1.0  0.0674
  C  C552  1  0.840090  0.754060  0.882700  1.0  -0.1339
  C  C553  1  0.868300  0.743490  0.896520  1.0  -0.0851
  C  C554  1  0.811040  0.786730  0.819820  1.0  -0.1002
  C  C555  1  0.793990  0.806790  0.912960  1.0  -0.0427
  C  C556  1  0.785150  0.839430  0.905240  1.0  0.0822
  C  C557  1  0.793530  0.867080  0.947970  1.0  -0.1546
  C  C558  1  0.786260  0.898150  0.939110  1.0  -0.0332
  C  C559  1  0.769920  0.901760  0.889440  1.0  -0.1543
  C  C560  1  0.760040  0.874510  0.843830  1.0  -0.0811
  C  C561  1  0.768100  0.843950  0.853000  1.0  -0.132
  C  C562  1  0.745910  0.742580  0.867700  1.0  0.1643
  C  C563  1  0.717580  0.736610  0.910660  1.0  -0.1538
  C  C564  1  0.681940  0.702110  0.913430  1.0  -0.1455
  C  C565  1  0.673390  0.672400  0.870690  1.0  -0.0027
  C  C566  1  0.701470  0.678220  0.828880  1.0  -0.1401
  C  C567  1  0.737340  0.712300  0.827630  1.0  -0.1605
  C  C568  1  0.761300  0.935730  0.881840  1.0  0.6401
  C  C569  1  0.692930  0.646640  0.782540  1.0  0.6652
  C  C570  1  0.652860  0.696410  0.962780  1.0  0.7324
  C  C571  1  0.598170  0.078210  0.209340  1.0  0.7138
  C  C572  1  0.567190  0.089130  0.193000  1.0  -0.1407
  C  C573  1  0.570170  0.110850  0.140310  1.0  -0.0937
  C  C574  1  0.540620  0.119670  0.129010  1.0  -0.0824
  C  C575  1  0.509050  0.108490  0.166520  1.0  0.0674
  C  C576  1  0.506750  0.087400  0.216040  1.0  -0.1339
  C  C577  1  0.534960  0.076830  0.229860  1.0  -0.0851
  C  C578  1  0.477700  0.120070  0.153160  1.0  -0.1002
  C  C579  1  0.460650  0.140130  0.246300  1.0  -0.0427
  C  C580  1  0.451810  0.172770  0.238580  1.0  0.0822
  C  C581  1  0.460190  0.200420  0.281310  1.0  -0.1546
  C  C582  1  0.452920  0.231490  0.272450  1.0  -0.0332
  C  C583  1  0.436580  0.235100  0.222780  1.0  -0.1543
  C  C584  1  0.426700  0.207850  0.177170  1.0  -0.0811
  C  C585  1  0.434760  0.177290  0.186340  1.0  -0.132
  C  C586  1  0.412570  0.075920  0.201040  1.0  0.1643
  C  C587  1  0.384240  0.069950  0.244000  1.0  -0.1538
  C  C588  1  0.348600  0.035450  0.246770  1.0  -0.1458
  C  C589  1  0.340050  0.005740  0.204030  1.0  -0.0025
  C  C590  1  0.368130  0.011560  0.162220  1.0  -0.1399
  C  C591  1  0.404000  0.045640  0.160970  1.0  -0.1605
  C  C592  1  0.427960  0.269070  0.215180  1.0  0.6406
  C  C593  1  0.359590  0.979980  0.115880  1.0  0.6652
  C  C594  1  0.319520  0.029750  0.296120  1.0  0.7324
  C  C595  1  0.146700  0.735160  0.542670  1.0  0.7132
  C  C596  1  0.188600  0.766140  0.526330  1.0  -0.1428
  C  C597  1  0.207340  0.763160  0.473640  1.0  -0.0897
  C  C598  1  0.245710  0.792710  0.462340  1.0  -0.0841
  C  C599  1  0.266100  0.824280  0.499850  1.0  0.0655
  C  C600  1  0.247310  0.826580  0.549370  1.0  -0.1312
  C  C601  1  0.208530  0.798370  0.563190  1.0  -0.0865
  C  C602  1  0.309030  0.855630  0.486490  1.0  -0.1002
  C  C603  1  0.346140  0.872680  0.579630  1.0  -0.046
  C  C604  1  0.387620  0.881520  0.571910  1.0  0.0833
  C  C605  1  0.406890  0.873140  0.614640  1.0  -0.1564
  C  C606  1  0.445230  0.880410  0.605780  1.0  -0.0309
  C  C607  1  0.465180  0.896750  0.556110  1.0  -0.1512
  C  C608  1  0.447810  0.906630  0.510500  1.0  -0.0838
  C  C609  1  0.409190  0.898570  0.519670  1.0  -0.1317
  C  C610  1  0.330010  0.920760  0.534370  1.0  0.1617
  C  C611  1  0.352370  0.949090  0.577330  1.0  -0.1514
  C  C612  1  0.353510  0.984730  0.580100  1.0  -0.1426
  C  C613  1  0.332350  0.993280  0.537360  1.0  -0.0031
  C  C614  1  0.310090  0.965200  0.495550  1.0  -0.1429
  C  C615  1  0.308300  0.929330  0.494300  1.0  -0.1638
  C  C616  1  0.507770  0.905370  0.548510  1.0  0.639
  C  C617  1  0.287050  0.973740  0.449210  1.0  0.6644
  C  C618  1  0.376890  0.013810  0.629450  1.0  0.7349
  C  C619  1  0.813370  0.068490  0.876000  1.0  0.7132
  C  C620  1  0.855270  0.099470  0.859660  1.0  -0.1428
  C  C621  1  0.874010  0.096490  0.806970  1.0  -0.0897
  C  C622  1  0.912380  0.126040  0.795670  1.0  -0.0841
  C  C623  1  0.932770  0.157610  0.833180  1.0  0.0655
  C  C624  1  0.913980  0.159910  0.882700  1.0  -0.1312
  C  C625  1  0.875200  0.131700  0.896520  1.0  -0.0864
  C  C626  1  0.975700  0.188960  0.819820  1.0  -0.1002
  C  C627  1  0.012810  0.206010  0.912960  1.0  -0.046
  C  C628  1  0.054290  0.214850  0.905240  1.0  0.0833
  C  C629  1  0.073560  0.206470  0.947970  1.0  -0.1564
  C  C630  1  0.111900  0.213740  0.939110  1.0  -0.0309
  C  C631  1  0.131850  0.230080  0.889440  1.0  -0.1512
  C  C632  1  0.114480  0.239960  0.843830  1.0  -0.0838
  C  C633  1  0.075860  0.231900  0.853000  1.0  -0.1317
  C  C634  1  0.996680  0.254090  0.867700  1.0  0.1617
  C  C635  1  0.019040  0.282420  0.910660  1.0  -0.1514
  C  C636  1  0.020180  0.318060  0.913430  1.0  -0.143
  C  C637  1  0.999020  0.326610  0.870690  1.0  -0.0031
  C  C638  1  0.976760  0.298530  0.828880  1.0  -0.1429
  C  C639  1  0.974970  0.262660  0.827630  1.0  -0.1638
  C  C640  1  0.174440  0.238700  0.881840  1.0  0.6393
  C  C641  1  0.953720  0.307070  0.782540  1.0  0.6644
  C  C642  1  0.043560  0.347140  0.962780  1.0  0.735
  C  C643  1  0.480030  0.401830  0.209340  1.0  0.7132
  C  C644  1  0.521930  0.432810  0.193000  1.0  -0.1428
  C  C645  1  0.540670  0.429830  0.140310  1.0  -0.0897
  C  C646  1  0.579040  0.459380  0.129010  1.0  -0.0841
  C  C647  1  0.599430  0.490950  0.166520  1.0  0.0655
  C  C648  1  0.580640  0.493250  0.216040  1.0  -0.1312
  C  C649  1  0.541860  0.465040  0.229860  1.0  -0.0865
  C  C650  1  0.642360  0.522300  0.153160  1.0  -0.1002
  C  C651  1  0.679470  0.539350  0.246300  1.0  -0.046
  C  C652  1  0.720950  0.548190  0.238580  1.0  0.0833
  C  C653  1  0.740220  0.539810  0.281310  1.0  -0.1564
  C  C654  1  0.778560  0.547080  0.272450  1.0  -0.0306
  C  C655  1  0.798510  0.563420  0.222780  1.0  -0.1512
  C  C656  1  0.781140  0.573300  0.177170  1.0  -0.0839
  C  C657  1  0.742520  0.565240  0.186340  1.0  -0.1317
  C  C658  1  0.663340  0.587430  0.201040  1.0  0.1617
  C  C659  1  0.685700  0.615760  0.244000  1.0  -0.1514
  C  C660  1  0.686840  0.651400  0.246770  1.0  -0.1426
  C  C661  1  0.665680  0.659950  0.204030  1.0  -0.0031
  C  C662  1  0.643420  0.631870  0.162220  1.0  -0.1429
  C  C663  1  0.641630  0.596000  0.160970  1.0  -0.1638
  C  C664  1  0.841100  0.572040  0.215180  1.0  0.639
  C  C665  1  0.620380  0.640410  0.115880  1.0  0.6644
  C  C666  1  0.710220  0.680480  0.296120  1.0  0.7349
  C  C667  1  0.588460  0.853300  0.542670  1.0  0.7141
  C  C668  1  0.577540  0.811400  0.526330  1.0  -0.1424
  C  C669  1  0.555820  0.792660  0.473640  1.0  -0.0929
  C  C670  1  0.547000  0.754290  0.462340  1.0  -0.0805
  C  C671  1  0.558180  0.733900  0.499850  1.0  0.0663
  C  C672  1  0.579270  0.752690  0.549370  1.0  -0.1344
  C  C673  1  0.589840  0.791470  0.563190  1.0  -0.0841
  C  C674  1  0.546600  0.690970  0.486490  1.0  -0.0982
  C  C675  1  0.526540  0.653860  0.579630  1.0  -0.0425
  C  C676  1  0.493900  0.612380  0.571910  1.0  0.0824
  C  C677  1  0.466250  0.593110  0.614640  1.0  -0.155
  C  C678  1  0.435180  0.554770  0.605780  1.0  -0.0304
  C  C679  1  0.431570  0.534820  0.556110  1.0  -0.1542
  C  C680  1  0.458820  0.552190  0.510500  1.0  -0.0818
  C  C681  1  0.489380  0.590810  0.519670  1.0  -0.1334
  C  C682  1  0.590750  0.669990  0.534370  1.0  0.1651
  C  C683  1  0.596720  0.647630  0.577330  1.0  -0.1551
  C  C684  1  0.631220  0.646490  0.580100  1.0  -0.1445
  C  C685  1  0.660930  0.667650  0.537360  1.0  -0.0042
  C  C686  1  0.655110  0.689910  0.495550  1.0  -0.1406
  C  C687  1  0.621030  0.691700  0.494300  1.0  -0.164
  C  C688  1  0.397600  0.492230  0.548510  1.0  0.6397
  C  C689  1  0.686690  0.712950  0.449210  1.0  0.6656
  C  C690  1  0.636920  0.623110  0.629450  1.0  0.7321
  C  C691  1  0.255130  0.186630  0.876000  1.0  0.7141
  C  C692  1  0.244210  0.144730  0.859660  1.0  -0.1427
  C  C693  1  0.222490  0.125990  0.806970  1.0  -0.0929
  C  C694  1  0.213670  0.087620  0.795670  1.0  -0.0805
  C  C695  1  0.224850  0.067230  0.833180  1.0  0.0663
  C  C696  1  0.245940  0.086020  0.882700  1.0  -0.1344
  C  C697  1  0.256510  0.124800  0.896520  1.0  -0.084
  C  C698  1  0.213270  0.024300  0.819820  1.0  -0.0982
  C  C699  1  0.193210  0.987190  0.912960  1.0  -0.0425
  C  C700  1  0.160570  0.945710  0.905240  1.0  0.0824
  C  C701  1  0.132920  0.926440  0.947970  1.0  -0.155
  C  C702  1  0.101850  0.888100  0.939110  1.0  -0.0304
  C  C703  1  0.098240  0.868150  0.889440  1.0  -0.1542
  C  C704  1  0.125490  0.885520  0.843830  1.0  -0.0818
  C  C705  1  0.156050  0.924140  0.853000  1.0  -0.1334
  C  C706  1  0.257420  0.003320  0.867700  1.0  0.1651
  C  C707  1  0.263390  0.980960  0.910660  1.0  -0.1551
  C  C708  1  0.297890  0.979820  0.913430  1.0  -0.1443
  C  C709  1  0.327600  0.000980  0.870690  1.0  -0.0042
  C  C710  1  0.321780  0.023240  0.828880  1.0  -0.1407
  C  C711  1  0.287700  0.025030  0.827630  1.0  -0.164
  C  C712  1  0.064270  0.825560  0.881840  1.0  0.64
  C  C713  1  0.353360  0.046280  0.782540  1.0  0.6656
  C  C714  1  0.303590  0.956440  0.962780  1.0  0.7321
  C  C715  1  0.921790  0.519970  0.209340  1.0  0.7141
  C  C716  1  0.910870  0.478070  0.193000  1.0  -0.1424
  C  C717  1  0.889150  0.459330  0.140310  1.0  -0.0929
  C  C718  1  0.880330  0.420960  0.129010  1.0  -0.0805
  C  C719  1  0.891510  0.400570  0.166520  1.0  0.0663
  C  C720  1  0.912600  0.419360  0.216040  1.0  -0.1344
  C  C721  1  0.923170  0.458140  0.229860  1.0  -0.0841
  C  C722  1  0.879930  0.357640  0.153160  1.0  -0.0982
  C  C723  1  0.859870  0.320530  0.246300  1.0  -0.0425
  C  C724  1  0.827230  0.279050  0.238580  1.0  0.0824
  C  C725  1  0.799580  0.259780  0.281310  1.0  -0.155
  C  C726  1  0.768510  0.221440  0.272450  1.0  -0.0304
  C  C727  1  0.764900  0.201490  0.222780  1.0  -0.1542
  C  C728  1  0.792150  0.218860  0.177170  1.0  -0.0818
  C  C729  1  0.822710  0.257480  0.186340  1.0  -0.1334
  C  C730  1  0.924080  0.336660  0.201040  1.0  0.1651
  C  C731  1  0.930050  0.314300  0.244000  1.0  -0.1551
  C  C732  1  0.964550  0.313160  0.246770  1.0  -0.1445
  C  C733  1  0.994260  0.334320  0.204030  1.0  -0.0042
  C  C734  1  0.988440  0.356580  0.162220  1.0  -0.1406
  C  C735  1  0.954360  0.358370  0.160970  1.0  -0.164
  C  C736  1  0.730930  0.158900  0.215180  1.0  0.6397
  C  C737  1  0.020020  0.379620  0.115880  1.0  0.6656
  C  C738  1  0.970250  0.289780  0.296120  1.0  0.7322
  N  N739  1  0.554610  0.883880  0.032990  1.0  -0.1016
  N  N740  1  0.221280  0.217210  0.366320  1.0  -0.1016
  N  N741  1  0.887940  0.550550  0.699660  1.0  -0.1016
  N  N742  1  0.116120  0.670730  0.032990  1.0  -0.1021
  N  N743  1  0.782790  0.004060  0.366320  1.0  -0.1021
  N  N744  1  0.449450  0.337400  0.699660  1.0  -0.1021
  N  N745  1  0.329270  0.445390  0.032990  1.0  -0.1005
  N  N746  1  0.995940  0.778720  0.366320  1.0  -0.1005
  N  N747  1  0.662600  0.112060  0.699660  1.0  -0.1005
  N  N748  1  0.116120  0.445390  0.532990  1.0  -0.1017
  N  N749  1  0.782790  0.778720  0.866320  1.0  -0.1017
  N  N750  1  0.449450  0.112060  0.199660  1.0  -0.1017
  N  N751  1  0.329270  0.883880  0.532990  1.0  -0.1021
  N  N752  1  0.995940  0.217210  0.866320  1.0  -0.1021
  N  N753  1  0.662600  0.550550  0.199660  1.0  -0.1021
  N  N754  1  0.554610  0.670730  0.532990  1.0  -0.0993
  N  N755  1  0.221280  0.004060  0.866320  1.0  -0.0993
  N  N756  1  0.887940  0.337400  0.199660  1.0  -0.0993
  O  O757  1  0.394610  0.919900  0.997620  1.0  -0.6025
  O  O758  1  0.373480  0.897570  0.089700  1.0  -0.5833
  O  O759  1  0.683420  0.946990  0.914770  1.0  -0.5676
  O  O760  1  0.716820  0.008450  0.945600  1.0  -0.6624
  O  O761  1  0.667820  0.047180  0.129430  1.0  -0.5814
  O  O762  1  0.610380  0.002120  0.167890  1.0  -0.6583
  O  O763  1  0.571840  0.704280  0.010380  1.0  -0.5798
  O  O764  1  0.612680  0.742570  0.083650  1.0  -0.6122
  O  O765  1  0.061280  0.253230  0.330950  1.0  -0.603
  O  O766  1  0.040150  0.230900  0.423030  1.0  -0.5833
  O  O767  1  0.350090  0.280320  0.248100  1.0  -0.5677
  O  O768  1  0.383490  0.341780  0.278930  1.0  -0.6624
  O  O769  1  0.334490  0.380510  0.462760  1.0  -0.5814
  O  O770  1  0.277050  0.335450  0.501220  1.0  -0.6583
  O  O771  1  0.238510  0.037610  0.343710  1.0  -0.5798
  O  O772  1  0.279350  0.075900  0.416980  1.0  -0.6122
  O  O773  1  0.727940  0.586570  0.664290  1.0  -0.6025
  O  O774  1  0.706810  0.564240  0.756370  1.0  -0.5833
  O  O775  1  0.016750  0.613660  0.581440  1.0  -0.5678
  O  O776  1  0.050150  0.675120  0.612270  1.0  -0.6622
  O  O777  1  0.001150  0.713850  0.796100  1.0  -0.5818
  O  O778  1  0.943710  0.668790  0.834560  1.0  -0.6581
  O  O779  1  0.905170  0.370950  0.677050  1.0  -0.5798
  O  O780  1  0.946010  0.409240  0.750320  1.0  -0.6125
  O  O781  1  0.080100  0.474710  0.997620  1.0  -0.6033
  O  O782  1  0.102430  0.475910  0.089700  1.0  -0.5869
  O  O783  1  0.053010  0.736430  0.914770  1.0  -0.5695
  O  O784  1  0.991550  0.708370  0.945600  1.0  -0.6633
  O  O785  1  0.952820  0.620640  0.129430  1.0  -0.5812
  O  O786  1  0.997880  0.608260  0.167890  1.0  -0.6603
  O  O787  1  0.295720  0.867560  0.010380  1.0  -0.5782
  O  O788  1  0.257430  0.870110  0.083650  1.0  -0.6142
  O  O789  1  0.746770  0.808040  0.330950  1.0  -0.6113
  O  O790  1  0.769100  0.809240  0.423030  1.0  -0.5869
  O  O791  1  0.719680  0.069760  0.248100  1.0  -0.5695
  O  O792  1  0.658220  0.041700  0.278930  1.0  -0.6632
  O  O793  1  0.619490  0.953970  0.462760  1.0  -0.5813
  O  O794  1  0.664550  0.941590  0.501220  1.0  -0.6603
  O  O795  1  0.962390  0.200890  0.343710  1.0  -0.5783
  O  O796  1  0.924100  0.203440  0.416980  1.0  -0.6142
  O  O797  1  0.413430  0.141380  0.664290  1.0  -0.6036
  O  O798  1  0.435760  0.142580  0.756370  1.0  -0.5869
  O  O799  1  0.386340  0.403100  0.581440  1.0  -0.5695
  O  O800  1  0.324880  0.375040  0.612270  1.0  -0.6632
  O  O801  1  0.286150  0.287310  0.796100  1.0  -0.5812
  O  O802  1  0.331210  0.274930  0.834560  1.0  -0.6603
  O  O803  1  0.629050  0.534230  0.677050  1.0  -0.5782
  O  O804  1  0.590760  0.536780  0.750320  1.0  -0.6142
  O  O805  1  0.525290  0.605390  0.997620  1.0  -0.6013
  O  O806  1  0.524090  0.626520  0.089700  1.0  -0.5859
  O  O807  1  0.263570  0.316580  0.914770  1.0  -0.5692
  O  O808  1  0.291630  0.283180  0.945600  1.0  -0.662
  O  O809  1  0.379360  0.332180  0.129430  1.0  -0.581
  O  O810  1  0.391740  0.389620  0.167890  1.0  -0.659
  O  O811  1  0.132440  0.428160  0.010380  1.0  -0.5768
  O  O812  1  0.129890  0.387320  0.083650  1.0  -0.6156
  O  O813  1  0.191960  0.938720  0.330950  1.0  -0.6013
  O  O814  1  0.190760  0.959850  0.423030  1.0  -0.5859
  O  O815  1  0.930240  0.649910  0.248100  1.0  -0.5691
  O  O816  1  0.958300  0.616510  0.278930  1.0  -0.6623
  O  O817  1  0.046030  0.665510  0.462760  1.0  -0.581
  O  O818  1  0.058410  0.722950  0.501220  1.0  -0.659
  O  O819  1  0.799110  0.761490  0.343710  1.0  -0.5768
  O  O820  1  0.796560  0.720650  0.416980  1.0  -0.6156
  O  O821  1  0.858620  0.272060  0.664290  1.0  -0.6008
  O  O822  1  0.857420  0.293190  0.756370  1.0  -0.5859
  O  O823  1  0.596900  0.983250  0.581440  1.0  -0.57
  O  O824  1  0.624960  0.949850  0.612270  1.0  -0.6621
  O  O825  1  0.712690  0.998850  0.796100  1.0  -0.581
  O  O826  1  0.725070  0.056290  0.834560  1.0  -0.6592
  O  O827  1  0.465770  0.094830  0.677050  1.0  -0.5768
  O  O828  1  0.463220  0.053990  0.750320  1.0  -0.6156
  O  O829  1  0.080100  0.605390  0.497620  1.0  -0.6008
  O  O830  1  0.102430  0.626520  0.589700  1.0  -0.5854
  O  O831  1  0.053010  0.316580  0.414770  1.0  -0.5699
  O  O832  1  0.991550  0.283180  0.445600  1.0  -0.6626
  O  O833  1  0.952820  0.332180  0.629430  1.0  -0.5815
  O  O834  1  0.997880  0.389620  0.667890  1.0  -0.6589
  O  O835  1  0.295720  0.428160  0.510380  1.0  -0.5786
  O  O836  1  0.257430  0.387320  0.583650  1.0  -0.6147
  O  O837  1  0.746770  0.938720  0.830950  1.0  -0.6014
  O  O838  1  0.769100  0.959850  0.923030  1.0  -0.5854
  O  O839  1  0.719680  0.649910  0.748100  1.0  -0.57
  O  O840  1  0.658220  0.616510  0.778930  1.0  -0.6626
  O  O841  1  0.619490  0.665510  0.962760  1.0  -0.5815
  O  O842  1  0.664550  0.722950  0.001220  1.0  -0.659
  O  O843  1  0.962390  0.761490  0.843710  1.0  -0.5786
  O  O844  1  0.924100  0.720650  0.916980  1.0  -0.6147
  O  O845  1  0.413430  0.272060  0.164290  1.0  -0.6007
  O  O846  1  0.435760  0.293190  0.256370  1.0  -0.5854
  O  O847  1  0.386340  0.983250  0.081440  1.0  -0.5701
  O  O848  1  0.324880  0.949850  0.112270  1.0  -0.6624
  O  O849  1  0.286150  0.998850  0.296100  1.0  -0.5818
  O  O850  1  0.331210  0.056290  0.334560  1.0  -0.6588
  O  O851  1  0.629050  0.094830  0.177050  1.0  -0.5786
  O  O852  1  0.590760  0.053990  0.250320  1.0  -0.615
  O  O853  1  0.525290  0.919900  0.497620  1.0  -0.6039
  O  O854  1  0.524090  0.897570  0.589700  1.0  -0.5848
  O  O855  1  0.263570  0.946990  0.414770  1.0  -0.568
  O  O856  1  0.291630  0.008450  0.445600  1.0  -0.6638
  O  O857  1  0.379360  0.047180  0.629430  1.0  -0.5811
  O  O858  1  0.391740  0.002120  0.667890  1.0  -0.6598
  O  O859  1  0.132440  0.704280  0.510380  1.0  -0.5788
  O  O860  1  0.129890  0.742570  0.583650  1.0  -0.6124
  O  O861  1  0.191960  0.253230  0.830950  1.0  -0.6123
  O  O862  1  0.190760  0.230900  0.923030  1.0  -0.5848
  O  O863  1  0.930240  0.280320  0.748100  1.0  -0.568
  O  O864  1  0.958300  0.341780  0.778930  1.0  -0.6638
  O  O865  1  0.046030  0.380510  0.962760  1.0  -0.5812
  O  O866  1  0.058410  0.335450  0.001220  1.0  -0.6598
  O  O867  1  0.799110  0.037610  0.843710  1.0  -0.5788
  O  O868  1  0.796560  0.075900  0.916980  1.0  -0.6124
  O  O869  1  0.858620  0.586570  0.164290  1.0  -0.6043
  O  O870  1  0.857420  0.564240  0.256370  1.0  -0.5848
  O  O871  1  0.596900  0.613660  0.081440  1.0  -0.5679
  O  O872  1  0.624960  0.675120  0.112270  1.0  -0.6638
  O  O873  1  0.712690  0.713850  0.296100  1.0  -0.5811
  O  O874  1  0.725070  0.668790  0.334560  1.0  -0.6598
  O  O875  1  0.465770  0.370950  0.177050  1.0  -0.5788
  O  O876  1  0.463220  0.409240  0.250320  1.0  -0.6124
  O  O877  1  0.394610  0.474710  0.497620  1.0  -0.6038
  O  O878  1  0.373480  0.475910  0.589700  1.0  -0.586
  O  O879  1  0.683420  0.736430  0.414770  1.0  -0.5684
  O  O880  1  0.716820  0.708370  0.445600  1.0  -0.6618
  O  O881  1  0.667820  0.620640  0.629430  1.0  -0.5804
  O  O882  1  0.610380  0.608260  0.667890  1.0  -0.6585
  O  O883  1  0.571840  0.867560  0.510380  1.0  -0.5769
  O  O884  1  0.612680  0.870110  0.583650  1.0  -0.6133
  O  O885  1  0.061280  0.808040  0.830950  1.0  -0.6038
  O  O886  1  0.040150  0.809240  0.923030  1.0  -0.586
  O  O887  1  0.350090  0.069760  0.748100  1.0  -0.5683
  O  O888  1  0.383490  0.041700  0.778930  1.0  -0.662
  O  O889  1  0.334490  0.953970  0.962760  1.0  -0.5804
  O  O890  1  0.277050  0.941590  0.001220  1.0  -0.6585
  O  O891  1  0.238510  0.200890  0.843710  1.0  -0.5769
  O  O892  1  0.279350  0.203440  0.916980  1.0  -0.6133
  O  O893  1  0.727940  0.141380  0.164290  1.0  -0.6034
  O  O894  1  0.706810  0.142580  0.256370  1.0  -0.586
  O  O895  1  0.016750  0.403100  0.081440  1.0  -0.5691
  O  O896  1  0.050150  0.375040  0.112270  1.0  -0.6618
  O  O897  1  0.001150  0.287310  0.296100  1.0  -0.5804
  O  O898  1  0.943710  0.274930  0.334560  1.0  -0.6587
  O  O899  1  0.905170  0.534230  0.177050  1.0  -0.5769
  O  O900  1  0.946010  0.536780  0.250320  1.0  -0.6133
