# generated using pymatgen
data_PrCoH18C36(NO2)6
_symmetry_space_group_name_H-M   'P 1'
_cell_length_a   23.31600000
_cell_length_b   28.01100000
_cell_length_c   36.07900000
_cell_angle_alpha   90.00000000
_cell_angle_beta   90.00000000
_cell_angle_gamma   90.00000000
_symmetry_Int_Tables_number   1
_chemical_formula_structural   PrCoH18C36(NO2)6
_chemical_formula_sum   'Pr16 Co16 H288 C576 N96 O192'
_cell_volume   23563.35638960
_cell_formula_units_Z   16
loop_
 _symmetry_equiv_pos_site_id
 _symmetry_equiv_pos_as_xyz
  1  'x, y, z'
loop_
 _atom_site_type_symbol
 _atom_site_label
 _atom_site_symmetry_multiplicity
 _atom_site_fract_x
 _atom_site_fract_y
 _atom_site_fract_z
 _atom_site_occupancy
 _atom_site_charge
  Pr  Pr1  1  0.898380  0.125000  0.125000  1.0  2.1214
  Pr  Pr2  1  0.898380  0.625000  0.625000  1.0  2.1214
  Pr  Pr3  1  0.398380  0.125000  0.625000  1.0  2.1214
  Pr  Pr4  1  0.851620  0.625000  0.125000  1.0  2.1219
  Pr  Pr5  1  0.351620  0.625000  0.625000  1.0  2.1219
  Pr  Pr6  1  0.851620  0.125000  0.625000  1.0  2.1219
  Pr  Pr7  1  0.351620  0.125000  0.125000  1.0  2.1219
  Pr  Pr8  1  0.398380  0.625000  0.125000  1.0  2.1214
  Pr  Pr9  1  0.101620  0.875000  0.875000  1.0  2.1219
  Pr  Pr10  1  0.101620  0.375000  0.375000  1.0  2.1219
  Pr  Pr11  1  0.601620  0.875000  0.375000  1.0  2.1219
  Pr  Pr12  1  0.148380  0.375000  0.875000  1.0  2.1214
  Pr  Pr13  1  0.648380  0.375000  0.375000  1.0  2.1214
  Pr  Pr14  1  0.148380  0.875000  0.375000  1.0  2.1214
  Pr  Pr15  1  0.648380  0.875000  0.875000  1.0  2.1214
  Pr  Pr16  1  0.601620  0.375000  0.875000  1.0  2.1219
  Co  Co17  1  0.625000  0.357400  0.125000  1.0  0.2858
  Co  Co18  1  0.625000  0.857400  0.625000  1.0  0.2858
  Co  Co19  1  0.125000  0.392600  0.125000  1.0  0.2856
  Co  Co20  1  0.125000  0.892600  0.625000  1.0  0.2856
  Co  Co21  1  0.625000  0.392600  0.625000  1.0  0.2856
  Co  Co22  1  0.125000  0.357400  0.625000  1.0  0.2858
  Co  Co23  1  0.125000  0.857400  0.125000  1.0  0.2858
  Co  Co24  1  0.625000  0.892600  0.125000  1.0  0.2856
  Co  Co25  1  0.375000  0.642600  0.875000  1.0  0.2856
  Co  Co26  1  0.375000  0.142600  0.375000  1.0  0.2856
  Co  Co27  1  0.875000  0.607400  0.875000  1.0  0.2858
  Co  Co28  1  0.875000  0.107400  0.375000  1.0  0.2858
  Co  Co29  1  0.875000  0.642600  0.375000  1.0  0.2856
  Co  Co30  1  0.875000  0.142600  0.875000  1.0  0.2856
  Co  Co31  1  0.375000  0.607400  0.375000  1.0  0.2858
  Co  Co32  1  0.375000  0.107400  0.875000  1.0  0.2858
  H  H33  1  0.680000  0.296800  0.070300  1.0  0.0985
  H  H34  1  0.756200  0.233900  0.073200  1.0  0.1678
  H  H35  1  0.735900  0.297500  0.227600  1.0  0.1348
  H  H36  1  0.756900  0.247000  0.181700  1.0  0.136
  H  H37  1  0.624900  0.401900  0.258000  1.0  0.1224
  H  H38  1  0.594200  0.403100  0.194100  1.0  0.1095
  H  H39  1  0.751500  0.371500  0.117800  1.0  0.099
  H  H40  1  0.810200  0.438200  0.115700  1.0  0.1214
  H  H41  1  0.669200  0.521100  0.125600  1.0  0.2088
  H  H42  1  0.680000  0.796800  0.570300  1.0  0.0985
  H  H43  1  0.756200  0.733900  0.573200  1.0  0.1678
  H  H44  1  0.735900  0.797500  0.727600  1.0  0.1348
  H  H45  1  0.756900  0.747000  0.681700  1.0  0.136
  H  H46  1  0.624900  0.901900  0.758000  1.0  0.1224
  H  H47  1  0.594200  0.903100  0.694100  1.0  0.1095
  H  H48  1  0.751500  0.871500  0.617800  1.0  0.099
  H  H49  1  0.810200  0.938200  0.615700  1.0  0.1214
  H  H50  1  0.669200  0.021100  0.625600  1.0  0.2088
  H  H51  1  0.180000  0.296800  0.570300  1.0  0.0985
  H  H52  1  0.256200  0.233900  0.573200  1.0  0.1678
  H  H53  1  0.235900  0.297500  0.727600  1.0  0.1348
  H  H54  1  0.256900  0.247000  0.681700  1.0  0.136
  H  H55  1  0.124900  0.401900  0.758000  1.0  0.1224
  H  H56  1  0.094200  0.403100  0.694100  1.0  0.1095
  H  H57  1  0.251500  0.371500  0.617800  1.0  0.099
  H  H58  1  0.310200  0.438200  0.615700  1.0  0.1214
  H  H59  1  0.169200  0.521100  0.625600  1.0  0.2088
  H  H60  1  0.180000  0.796800  0.070300  1.0  0.0985
  H  H61  1  0.256200  0.733900  0.073200  1.0  0.1678
  H  H62  1  0.235900  0.797500  0.227600  1.0  0.1348
  H  H63  1  0.256900  0.747000  0.181700  1.0  0.136
  H  H64  1  0.124900  0.901900  0.258000  1.0  0.1224
  H  H65  1  0.094200  0.903100  0.194100  1.0  0.1095
  H  H66  1  0.251500  0.871500  0.117800  1.0  0.099
  H  H67  1  0.310200  0.938200  0.115700  1.0  0.1214
  H  H68  1  0.169200  0.021100  0.125600  1.0  0.2088
  H  H69  1  0.070000  0.453200  0.070300  1.0  0.0992
  H  H70  1  0.993800  0.516100  0.073200  1.0  0.1677
  H  H71  1  0.014100  0.452500  0.227600  1.0  0.1352
  H  H72  1  0.993100  0.503000  0.181700  1.0  0.1363
  H  H73  1  0.125100  0.348100  0.258000  1.0  0.1222
  H  H74  1  0.155800  0.346900  0.194100  1.0  0.1096
  H  H75  1  0.998500  0.378500  0.117800  1.0  0.0991
  H  H76  1  0.939800  0.311800  0.115700  1.0  0.1235
  H  H77  1  0.080800  0.228900  0.125600  1.0  0.2098
  H  H78  1  0.070000  0.953200  0.570300  1.0  0.0992
  H  H79  1  0.993800  0.016100  0.573200  1.0  0.1677
  H  H80  1  0.014100  0.952500  0.727600  1.0  0.1352
  H  H81  1  0.993100  0.003000  0.681700  1.0  0.1363
  H  H82  1  0.125100  0.848100  0.758000  1.0  0.1222
  H  H83  1  0.155800  0.846900  0.694100  1.0  0.1096
  H  H84  1  0.998500  0.878500  0.617800  1.0  0.0991
  H  H85  1  0.939800  0.811800  0.615700  1.0  0.1235
  H  H86  1  0.080800  0.728900  0.625600  1.0  0.2098
  H  H87  1  0.570000  0.453200  0.570300  1.0  0.0992
  H  H88  1  0.493800  0.516100  0.573200  1.0  0.1677
  H  H89  1  0.514100  0.452500  0.727600  1.0  0.1352
  H  H90  1  0.493100  0.503000  0.681700  1.0  0.1363
  H  H91  1  0.625100  0.348100  0.758000  1.0  0.1222
  H  H92  1  0.655800  0.346900  0.694100  1.0  0.1096
  H  H93  1  0.498500  0.378500  0.617800  1.0  0.0991
  H  H94  1  0.439800  0.311800  0.615700  1.0  0.1235
  H  H95  1  0.580800  0.228900  0.625600  1.0  0.2098
  H  H96  1  0.570000  0.953200  0.070300  1.0  0.0992
  H  H97  1  0.493800  0.016100  0.073200  1.0  0.1677
  H  H98  1  0.514100  0.952500  0.227600  1.0  0.1352
  H  H99  1  0.493100  0.003000  0.181700  1.0  0.1363
  H  H100  1  0.625100  0.848100  0.258000  1.0  0.1222
  H  H101  1  0.655800  0.846900  0.194100  1.0  0.1096
  H  H102  1  0.498500  0.878500  0.117800  1.0  0.0991
  H  H103  1  0.439800  0.811800  0.115700  1.0  0.1235
  H  H104  1  0.580800  0.728900  0.125600  1.0  0.2098
  H  H105  1  0.070000  0.296800  0.679700  1.0  0.0977
  H  H106  1  0.993800  0.233900  0.676800  1.0  0.1676
  H  H107  1  0.014100  0.297500  0.522400  1.0  0.1356
  H  H108  1  0.993100  0.247000  0.568300  1.0  0.136
  H  H109  1  0.125100  0.401900  0.492000  1.0  0.1227
  H  H110  1  0.155800  0.403100  0.555900  1.0  0.1108
  H  H111  1  0.998500  0.371500  0.632200  1.0  0.0997
  H  H112  1  0.939800  0.438200  0.634300  1.0  0.123
  H  H113  1  0.080800  0.521100  0.624400  1.0  0.2094
  H  H114  1  0.070000  0.796800  0.179700  1.0  0.0977
  H  H115  1  0.993800  0.733900  0.176800  1.0  0.1676
  H  H116  1  0.014100  0.797500  0.022400  1.0  0.1356
  H  H117  1  0.993100  0.747000  0.068300  1.0  0.136
  H  H118  1  0.125100  0.901900  0.992000  1.0  0.1227
  H  H119  1  0.155800  0.903100  0.055900  1.0  0.1108
  H  H120  1  0.998500  0.871500  0.132200  1.0  0.0997
  H  H121  1  0.939800  0.938200  0.134300  1.0  0.123
  H  H122  1  0.080800  0.021100  0.124400  1.0  0.2094
  H  H123  1  0.570000  0.296800  0.179700  1.0  0.0977
  H  H124  1  0.493800  0.233900  0.176800  1.0  0.1676
  H  H125  1  0.514100  0.297500  0.022400  1.0  0.1356
  H  H126  1  0.493100  0.247000  0.068300  1.0  0.136
  H  H127  1  0.625100  0.401900  0.992000  1.0  0.1227
  H  H128  1  0.655800  0.403100  0.055900  1.0  0.1108
  H  H129  1  0.498500  0.371500  0.132200  1.0  0.0997
  H  H130  1  0.439800  0.438200  0.134300  1.0  0.123
  H  H131  1  0.580800  0.521100  0.124400  1.0  0.2094
  H  H132  1  0.570000  0.796800  0.679700  1.0  0.0977
  H  H133  1  0.493800  0.733900  0.676800  1.0  0.1676
  H  H134  1  0.514100  0.797500  0.522400  1.0  0.1356
  H  H135  1  0.493100  0.747000  0.568300  1.0  0.136
  H  H136  1  0.625100  0.901900  0.492000  1.0  0.1227
  H  H137  1  0.655800  0.903100  0.555900  1.0  0.1108
  H  H138  1  0.498500  0.871500  0.632200  1.0  0.0997
  H  H139  1  0.439800  0.938200  0.634300  1.0  0.123
  H  H140  1  0.580800  0.021100  0.624400  1.0  0.2094
  H  H141  1  0.680000  0.453200  0.679700  1.0  0.0978
  H  H142  1  0.756200  0.516100  0.676800  1.0  0.1691
  H  H143  1  0.735900  0.452500  0.522400  1.0  0.1354
  H  H144  1  0.756900  0.503000  0.568300  1.0  0.1365
  H  H145  1  0.624900  0.348100  0.492000  1.0  0.1219
  H  H146  1  0.594200  0.346900  0.555900  1.0  0.1095
  H  H147  1  0.751500  0.378500  0.632200  1.0  0.099
  H  H148  1  0.810200  0.311800  0.634300  1.0  0.1214
  H  H149  1  0.669200  0.228900  0.624400  1.0  0.2104
  H  H150  1  0.680000  0.953200  0.179700  1.0  0.0978
  H  H151  1  0.756200  0.016100  0.176800  1.0  0.1691
  H  H152  1  0.735900  0.952500  0.022400  1.0  0.1354
  H  H153  1  0.756900  0.003000  0.068300  1.0  0.1365
  H  H154  1  0.624900  0.848100  0.992000  1.0  0.1219
  H  H155  1  0.594200  0.846900  0.055900  1.0  0.1095
  H  H156  1  0.751500  0.878500  0.132200  1.0  0.099
  H  H157  1  0.810200  0.811800  0.134300  1.0  0.1214
  H  H158  1  0.669200  0.728900  0.124400  1.0  0.2104
  H  H159  1  0.180000  0.453200  0.179700  1.0  0.0978
  H  H160  1  0.256200  0.516100  0.176800  1.0  0.1691
  H  H161  1  0.235900  0.452500  0.022400  1.0  0.1354
  H  H162  1  0.256900  0.503000  0.068300  1.0  0.1365
  H  H163  1  0.124900  0.348100  0.992000  1.0  0.1219
  H  H164  1  0.094200  0.346900  0.055900  1.0  0.1095
  H  H165  1  0.251500  0.378500  0.132200  1.0  0.099
  H  H166  1  0.310200  0.311800  0.134300  1.0  0.1214
  H  H167  1  0.169200  0.228900  0.124400  1.0  0.2104
  H  H168  1  0.180000  0.953200  0.679700  1.0  0.0978
  H  H169  1  0.256200  0.016100  0.676800  1.0  0.1691
  H  H170  1  0.235900  0.952500  0.522400  1.0  0.1354
  H  H171  1  0.256900  0.003000  0.568300  1.0  0.1365
  H  H172  1  0.124900  0.848100  0.492000  1.0  0.1219
  H  H173  1  0.094200  0.846900  0.555900  1.0  0.1095
  H  H174  1  0.251500  0.878500  0.632200  1.0  0.099
  H  H175  1  0.310200  0.811800  0.634300  1.0  0.1214
  H  H176  1  0.169200  0.728900  0.624400  1.0  0.2104
  H  H177  1  0.320000  0.703200  0.929700  1.0  0.0982
  H  H178  1  0.243800  0.766100  0.926800  1.0  0.1681
  H  H179  1  0.264100  0.702500  0.772400  1.0  0.1359
  H  H180  1  0.243100  0.753000  0.818300  1.0  0.1362
  H  H181  1  0.375100  0.598100  0.742000  1.0  0.1222
  H  H182  1  0.405800  0.596900  0.805900  1.0  0.1101
  H  H183  1  0.248500  0.628500  0.882200  1.0  0.099
  H  H184  1  0.189800  0.561800  0.884300  1.0  0.123
  H  H185  1  0.330800  0.478900  0.874400  1.0  0.2097
  H  H186  1  0.320000  0.203200  0.429700  1.0  0.0982
  H  H187  1  0.243800  0.266100  0.426800  1.0  0.1681
  H  H188  1  0.264100  0.202500  0.272400  1.0  0.1359
  H  H189  1  0.243100  0.253000  0.318300  1.0  0.1362
  H  H190  1  0.375100  0.098100  0.242000  1.0  0.1222
  H  H191  1  0.405800  0.096900  0.305900  1.0  0.1101
  H  H192  1  0.248500  0.128500  0.382200  1.0  0.099
  H  H193  1  0.189800  0.061800  0.384300  1.0  0.123
  H  H194  1  0.330800  0.978900  0.374400  1.0  0.2097
  H  H195  1  0.820000  0.703200  0.429700  1.0  0.0982
  H  H196  1  0.743800  0.766100  0.426800  1.0  0.1681
  H  H197  1  0.764100  0.702500  0.272400  1.0  0.1359
  H  H198  1  0.743100  0.753000  0.318300  1.0  0.1362
  H  H199  1  0.875100  0.598100  0.242000  1.0  0.1222
  H  H200  1  0.905800  0.596900  0.305900  1.0  0.1101
  H  H201  1  0.748500  0.628500  0.382200  1.0  0.099
  H  H202  1  0.689800  0.561800  0.384300  1.0  0.123
  H  H203  1  0.830800  0.478900  0.374400  1.0  0.2097
  H  H204  1  0.820000  0.203200  0.929700  1.0  0.0982
  H  H205  1  0.743800  0.266100  0.926800  1.0  0.1681
  H  H206  1  0.764100  0.202500  0.772400  1.0  0.1359
  H  H207  1  0.743100  0.253000  0.818300  1.0  0.1362
  H  H208  1  0.875100  0.098100  0.742000  1.0  0.1222
  H  H209  1  0.905800  0.096900  0.805900  1.0  0.1101
  H  H210  1  0.748500  0.128500  0.882200  1.0  0.099
  H  H211  1  0.689800  0.061800  0.884300  1.0  0.123
  H  H212  1  0.830800  0.978900  0.874400  1.0  0.2097
  H  H213  1  0.930000  0.546800  0.929700  1.0  0.0974
  H  H214  1  0.006200  0.483900  0.926800  1.0  0.1685
  H  H215  1  0.985900  0.547500  0.772400  1.0  0.1355
  H  H216  1  0.006900  0.497000  0.818300  1.0  0.1364
  H  H217  1  0.874900  0.651900  0.742000  1.0  0.1225
  H  H218  1  0.844200  0.653100  0.805900  1.0  0.1109
  H  H219  1  0.001500  0.621500  0.882200  1.0  0.0994
  H  H220  1  0.060200  0.688200  0.884300  1.0  0.1212
  H  H221  1  0.919200  0.771100  0.874400  1.0  0.2087
  H  H222  1  0.930000  0.046800  0.429700  1.0  0.0974
  H  H223  1  0.006200  0.983900  0.426800  1.0  0.1685
  H  H224  1  0.985900  0.047500  0.272400  1.0  0.1355
  H  H225  1  0.006900  0.997000  0.318300  1.0  0.1364
  H  H226  1  0.874900  0.151900  0.242000  1.0  0.1225
  H  H227  1  0.844200  0.153100  0.305900  1.0  0.1109
  H  H228  1  0.001500  0.121500  0.382200  1.0  0.0994
  H  H229  1  0.060200  0.188200  0.384300  1.0  0.1212
  H  H230  1  0.919200  0.271100  0.374400  1.0  0.2087
  H  H231  1  0.430000  0.546800  0.429700  1.0  0.0974
  H  H232  1  0.506200  0.483900  0.426800  1.0  0.1685
  H  H233  1  0.485900  0.547500  0.272400  1.0  0.1355
  H  H234  1  0.506900  0.497000  0.318300  1.0  0.1364
  H  H235  1  0.374900  0.651900  0.242000  1.0  0.1225
  H  H236  1  0.344200  0.653100  0.305900  1.0  0.1109
  H  H237  1  0.501500  0.621500  0.382200  1.0  0.0994
  H  H238  1  0.560200  0.688200  0.384300  1.0  0.1212
  H  H239  1  0.419200  0.771100  0.374400  1.0  0.2087
  H  H240  1  0.430000  0.046800  0.929700  1.0  0.0974
  H  H241  1  0.506200  0.983900  0.926800  1.0  0.1685
  H  H242  1  0.485900  0.047500  0.772400  1.0  0.1355
  H  H243  1  0.506900  0.997000  0.818300  1.0  0.1364
  H  H244  1  0.374900  0.151900  0.742000  1.0  0.1225
  H  H245  1  0.344200  0.153100  0.805900  1.0  0.1109
  H  H246  1  0.501500  0.121500  0.882200  1.0  0.0994
  H  H247  1  0.560200  0.188200  0.884300  1.0  0.1212
  H  H248  1  0.419200  0.271100  0.874400  1.0  0.2087
  H  H249  1  0.930000  0.703200  0.320300  1.0  0.0991
  H  H250  1  0.006200  0.766100  0.323200  1.0  0.1679
  H  H251  1  0.985900  0.702500  0.477600  1.0  0.1347
  H  H252  1  0.006900  0.753000  0.431700  1.0  0.1363
  H  H253  1  0.874900  0.598100  0.508000  1.0  0.1224
  H  H254  1  0.844200  0.596900  0.444100  1.0  0.1091
  H  H255  1  0.001500  0.628500  0.367800  1.0  0.0988
  H  H256  1  0.060200  0.561800  0.365700  1.0  0.1217
  H  H257  1  0.919200  0.478900  0.375600  1.0  0.2106
  H  H258  1  0.930000  0.203200  0.820300  1.0  0.0991
  H  H259  1  0.006200  0.266100  0.823200  1.0  0.1679
  H  H260  1  0.985900  0.202500  0.977600  1.0  0.1347
  H  H261  1  0.006900  0.253000  0.931700  1.0  0.1363
  H  H262  1  0.874900  0.098100  0.008000  1.0  0.1224
  H  H263  1  0.844200  0.096900  0.944100  1.0  0.1091
  H  H264  1  0.001500  0.128500  0.867800  1.0  0.0988
  H  H265  1  0.060200  0.061800  0.865700  1.0  0.1217
  H  H266  1  0.919200  0.978900  0.875600  1.0  0.2106
  H  H267  1  0.430000  0.703200  0.820300  1.0  0.0991
  H  H268  1  0.506200  0.766100  0.823200  1.0  0.1679
  H  H269  1  0.485900  0.702500  0.977600  1.0  0.1347
  H  H270  1  0.506900  0.753000  0.931700  1.0  0.1363
  H  H271  1  0.374900  0.598100  0.008000  1.0  0.1224
  H  H272  1  0.344200  0.596900  0.944100  1.0  0.1091
  H  H273  1  0.501500  0.628500  0.867800  1.0  0.0988
  H  H274  1  0.560200  0.561800  0.865700  1.0  0.1217
  H  H275  1  0.419200  0.478900  0.875600  1.0  0.2106
  H  H276  1  0.430000  0.203200  0.320300  1.0  0.0991
  H  H277  1  0.506200  0.266100  0.323200  1.0  0.1679
  H  H278  1  0.485900  0.202500  0.477600  1.0  0.1347
  H  H279  1  0.506900  0.253000  0.431700  1.0  0.1363
  H  H280  1  0.374900  0.098100  0.508000  1.0  0.1224
  H  H281  1  0.344200  0.096900  0.444100  1.0  0.1091
  H  H282  1  0.501500  0.128500  0.367800  1.0  0.0988
  H  H283  1  0.560200  0.061800  0.365700  1.0  0.1217
  H  H284  1  0.419200  0.978900  0.375600  1.0  0.2106
  H  H285  1  0.320000  0.546800  0.320300  1.0  0.0986
  H  H286  1  0.243800  0.483900  0.323200  1.0  0.1675
  H  H287  1  0.264100  0.547500  0.477600  1.0  0.1349
  H  H288  1  0.243100  0.497000  0.431700  1.0  0.1361
  H  H289  1  0.375100  0.651900  0.508000  1.0  0.1224
  H  H290  1  0.405800  0.653100  0.444100  1.0  0.1094
  H  H291  1  0.248500  0.621500  0.367800  1.0  0.0992
  H  H292  1  0.189800  0.688200  0.365700  1.0  0.1233
  H  H293  1  0.330800  0.771100  0.375600  1.0  0.2093
  H  H294  1  0.320000  0.046800  0.820300  1.0  0.0986
  H  H295  1  0.243800  0.983900  0.823200  1.0  0.1675
  H  H296  1  0.264100  0.047500  0.977600  1.0  0.1349
  H  H297  1  0.243100  0.997000  0.931700  1.0  0.1361
  H  H298  1  0.375100  0.151900  0.008000  1.0  0.1224
  H  H299  1  0.405800  0.153100  0.944100  1.0  0.1094
  H  H300  1  0.248500  0.121500  0.867800  1.0  0.0992
  H  H301  1  0.189800  0.188200  0.865700  1.0  0.1233
  H  H302  1  0.330800  0.271100  0.875600  1.0  0.2093
  H  H303  1  0.820000  0.546800  0.820300  1.0  0.0986
  H  H304  1  0.743800  0.483900  0.823200  1.0  0.1675
  H  H305  1  0.764100  0.547500  0.977600  1.0  0.1349
  H  H306  1  0.743100  0.497000  0.931700  1.0  0.1361
  H  H307  1  0.875100  0.651900  0.008000  1.0  0.1224
  H  H308  1  0.905800  0.653100  0.944100  1.0  0.1094
  H  H309  1  0.748500  0.621500  0.867800  1.0  0.0992
  H  H310  1  0.689800  0.688200  0.865700  1.0  0.1233
  H  H311  1  0.830800  0.771100  0.875600  1.0  0.2093
  H  H312  1  0.820000  0.046800  0.320300  1.0  0.0986
  H  H313  1  0.743800  0.983900  0.323200  1.0  0.1675
  H  H314  1  0.764100  0.047500  0.477600  1.0  0.1349
  H  H315  1  0.743100  0.997000  0.431700  1.0  0.1361
  H  H316  1  0.875100  0.151900  0.508000  1.0  0.1224
  H  H317  1  0.905800  0.153100  0.444100  1.0  0.1094
  H  H318  1  0.748500  0.121500  0.367800  1.0  0.0992
  H  H319  1  0.689800  0.188200  0.365700  1.0  0.1233
  H  H320  1  0.830800  0.271100  0.375600  1.0  0.2093
  C  C321  1  0.699340  0.284490  0.090880  1.0  0.0375
  C  C322  1  0.738090  0.247150  0.092090  1.0  -0.0222
  C  C323  1  0.759810  0.232660  0.126130  1.0  -0.1734
  C  C324  1  0.742500  0.256330  0.158100  1.0  -0.0619
  C  C325  1  0.703880  0.293790  0.155030  1.0  0.1897
  C  C326  1  0.684000  0.322630  0.186320  1.0  0.1937
  C  C327  1  0.705180  0.318580  0.222040  1.0  -0.0501
  C  C328  1  0.683310  0.348480  0.249330  1.0  -0.1391
  C  C329  1  0.640740  0.381100  0.240110  1.0  -0.0613
  C  C330  1  0.622470  0.384290  0.204010  1.0  0.0648
  C  C331  1  0.802990  0.192540  0.128430  1.0  0.7193
  C  C332  1  0.706300  0.345310  0.288850  1.0  0.7571
  C  C333  1  0.736770  0.404750  0.116080  1.0  0.1431
  C  C334  1  0.772120  0.444510  0.114920  1.0  -0.0449
  C  C335  1  0.748400  0.489530  0.119230  1.0  -0.0567
  C  C336  1  0.689700  0.493940  0.123220  1.0  -0.0411
  C  C337  1  0.655930  0.452970  0.123280  1.0  0.1587
  C  C338  1  0.785800  0.534040  0.120430  1.0  0.7323
  C  C339  1  0.699340  0.784490  0.590880  1.0  0.0375
  C  C340  1  0.738090  0.747150  0.592090  1.0  -0.0222
  C  C341  1  0.759810  0.732660  0.626130  1.0  -0.1734
  C  C342  1  0.742500  0.756330  0.658100  1.0  -0.0619
  C  C343  1  0.703880  0.793790  0.655030  1.0  0.1897
  C  C344  1  0.684000  0.822630  0.686320  1.0  0.1937
  C  C345  1  0.705180  0.818580  0.722040  1.0  -0.0501
  C  C346  1  0.683310  0.848480  0.749330  1.0  -0.1391
  C  C347  1  0.640740  0.881100  0.740110  1.0  -0.0613
  C  C348  1  0.622470  0.884290  0.704010  1.0  0.0648
  C  C349  1  0.802990  0.692540  0.628430  1.0  0.7193
  C  C350  1  0.706300  0.845310  0.788850  1.0  0.7571
  C  C351  1  0.736770  0.904750  0.616080  1.0  0.1431
  C  C352  1  0.772120  0.944510  0.614920  1.0  -0.0449
  C  C353  1  0.748400  0.989530  0.619230  1.0  -0.0567
  C  C354  1  0.689700  0.993940  0.623220  1.0  -0.0411
  C  C355  1  0.655930  0.952970  0.623280  1.0  0.1587
  C  C356  1  0.785800  0.034040  0.620430  1.0  0.7323
  C  C357  1  0.199340  0.284490  0.590880  1.0  0.0375
  C  C358  1  0.238090  0.247150  0.592090  1.0  -0.0222
  C  C359  1  0.259810  0.232660  0.626130  1.0  -0.1734
  C  C360  1  0.242500  0.256330  0.658100  1.0  -0.0619
  C  C361  1  0.203880  0.293790  0.655030  1.0  0.1897
  C  C362  1  0.184000  0.322630  0.686320  1.0  0.1937
  C  C363  1  0.205180  0.318580  0.722040  1.0  -0.0501
  C  C364  1  0.183310  0.348480  0.749330  1.0  -0.1391
  C  C365  1  0.140740  0.381100  0.740110  1.0  -0.0613
  C  C366  1  0.122470  0.384290  0.704010  1.0  0.0648
  C  C367  1  0.302990  0.192540  0.628430  1.0  0.7193
  C  C368  1  0.206300  0.345310  0.788850  1.0  0.7571
  C  C369  1  0.236770  0.404750  0.616080  1.0  0.1431
  C  C370  1  0.272120  0.444510  0.614920  1.0  -0.0449
  C  C371  1  0.248400  0.489530  0.619230  1.0  -0.0567
  C  C372  1  0.189700  0.493940  0.623220  1.0  -0.0411
  C  C373  1  0.155930  0.452970  0.623280  1.0  0.1587
  C  C374  1  0.285800  0.534040  0.620430  1.0  0.7323
  C  C375  1  0.199340  0.784490  0.090880  1.0  0.0375
  C  C376  1  0.238090  0.747150  0.092090  1.0  -0.0222
  C  C377  1  0.259810  0.732660  0.126130  1.0  -0.1734
  C  C378  1  0.242500  0.756330  0.158100  1.0  -0.0619
  C  C379  1  0.203880  0.793790  0.155030  1.0  0.1897
  C  C380  1  0.184000  0.822630  0.186320  1.0  0.1937
  C  C381  1  0.205180  0.818580  0.222040  1.0  -0.0501
  C  C382  1  0.183310  0.848480  0.249330  1.0  -0.1391
  C  C383  1  0.140740  0.881100  0.240110  1.0  -0.0613
  C  C384  1  0.122470  0.884290  0.204010  1.0  0.0648
  C  C385  1  0.302990  0.692540  0.128430  1.0  0.7193
  C  C386  1  0.206300  0.845310  0.288850  1.0  0.7571
  C  C387  1  0.236770  0.904750  0.116080  1.0  0.1431
  C  C388  1  0.272120  0.944510  0.114920  1.0  -0.0449
  C  C389  1  0.248400  0.989530  0.119230  1.0  -0.0567
  C  C390  1  0.189700  0.993940  0.123220  1.0  -0.0411
  C  C391  1  0.155930  0.952970  0.123280  1.0  0.1587
  C  C392  1  0.285800  0.034040  0.120430  1.0  0.7323
  C  C393  1  0.050660  0.465510  0.090880  1.0  0.0374
  C  C394  1  0.011910  0.502850  0.092090  1.0  -0.02
  C  C395  1  0.990190  0.517340  0.126130  1.0  -0.1728
  C  C396  1  0.007500  0.493670  0.158100  1.0  -0.063
  C  C397  1  0.046120  0.456210  0.155030  1.0  0.1897
  C  C398  1  0.066000  0.427370  0.186320  1.0  0.1916
  C  C399  1  0.044820  0.431420  0.222040  1.0  -0.052
  C  C400  1  0.066690  0.401520  0.249330  1.0  -0.1398
  C  C401  1  0.109260  0.368900  0.240110  1.0  -0.0606
  C  C402  1  0.127530  0.365710  0.204010  1.0  0.0644
  C  C403  1  0.947010  0.557460  0.128430  1.0  0.7214
  C  C404  1  0.043700  0.404690  0.288850  1.0  0.7559
  C  C405  1  0.013230  0.345250  0.116080  1.0  0.141
  C  C406  1  0.977880  0.305490  0.114920  1.0  -0.0468
  C  C407  1  0.001600  0.260470  0.119230  1.0  -0.0561
  C  C408  1  0.060300  0.256060  0.123220  1.0  -0.0398
  C  C409  1  0.094070  0.297030  0.123280  1.0  0.1562
  C  C410  1  0.964200  0.215960  0.120430  1.0  0.7322
  C  C411  1  0.050660  0.965510  0.590880  1.0  0.0374
  C  C412  1  0.011910  0.002850  0.592090  1.0  -0.02
  C  C413  1  0.990190  0.017340  0.626130  1.0  -0.1728
  C  C414  1  0.007500  0.993670  0.658100  1.0  -0.063
  C  C415  1  0.046120  0.956210  0.655030  1.0  0.1897
  C  C416  1  0.066000  0.927370  0.686320  1.0  0.1916
  C  C417  1  0.044820  0.931420  0.722040  1.0  -0.052
  C  C418  1  0.066690  0.901520  0.749330  1.0  -0.1398
  C  C419  1  0.109260  0.868900  0.740110  1.0  -0.0606
  C  C420  1  0.127530  0.865710  0.704010  1.0  0.0644
  C  C421  1  0.947010  0.057460  0.628430  1.0  0.7214
  C  C422  1  0.043700  0.904690  0.788850  1.0  0.7559
  C  C423  1  0.013230  0.845250  0.616080  1.0  0.141
  C  C424  1  0.977880  0.805490  0.614920  1.0  -0.0468
  C  C425  1  0.001600  0.760470  0.619230  1.0  -0.0561
  C  C426  1  0.060300  0.756060  0.623220  1.0  -0.0398
  C  C427  1  0.094070  0.797030  0.623280  1.0  0.1562
  C  C428  1  0.964200  0.715960  0.620430  1.0  0.7322
  C  C429  1  0.550660  0.465510  0.590880  1.0  0.0374
  C  C430  1  0.511910  0.502850  0.592090  1.0  -0.02
  C  C431  1  0.490190  0.517340  0.626130  1.0  -0.1728
  C  C432  1  0.507500  0.493670  0.658100  1.0  -0.063
  C  C433  1  0.546120  0.456210  0.655030  1.0  0.1897
  C  C434  1  0.566000  0.427370  0.686320  1.0  0.1916
  C  C435  1  0.544820  0.431420  0.722040  1.0  -0.052
  C  C436  1  0.566690  0.401520  0.749330  1.0  -0.1398
  C  C437  1  0.609260  0.368900  0.740110  1.0  -0.0606
  C  C438  1  0.627530  0.365710  0.704010  1.0  0.0644
  C  C439  1  0.447010  0.557460  0.628430  1.0  0.7214
  C  C440  1  0.543700  0.404690  0.788850  1.0  0.7559
  C  C441  1  0.513230  0.345250  0.616080  1.0  0.141
  C  C442  1  0.477880  0.305490  0.614920  1.0  -0.0468
  C  C443  1  0.501600  0.260470  0.619230  1.0  -0.0561
  C  C444  1  0.560300  0.256060  0.623220  1.0  -0.0398
  C  C445  1  0.594070  0.297030  0.623280  1.0  0.1562
  C  C446  1  0.464200  0.215960  0.620430  1.0  0.7322
  C  C447  1  0.550660  0.965510  0.090880  1.0  0.0374
  C  C448  1  0.511910  0.002850  0.092090  1.0  -0.02
  C  C449  1  0.490190  0.017340  0.126130  1.0  -0.1728
  C  C450  1  0.507500  0.993670  0.158100  1.0  -0.063
  C  C451  1  0.546120  0.956210  0.155030  1.0  0.1897
  C  C452  1  0.566000  0.927370  0.186320  1.0  0.1916
  C  C453  1  0.544820  0.931420  0.222040  1.0  -0.052
  C  C454  1  0.566690  0.901520  0.249330  1.0  -0.1398
  C  C455  1  0.609260  0.868900  0.240110  1.0  -0.0606
  C  C456  1  0.627530  0.865710  0.204010  1.0  0.0644
  C  C457  1  0.447010  0.057460  0.128430  1.0  0.7214
  C  C458  1  0.543700  0.904690  0.288850  1.0  0.7559
  C  C459  1  0.513230  0.845250  0.116080  1.0  0.141
  C  C460  1  0.477880  0.805490  0.114920  1.0  -0.0468
  C  C461  1  0.501600  0.760470  0.119230  1.0  -0.0561
  C  C462  1  0.560300  0.756060  0.123220  1.0  -0.0398
  C  C463  1  0.594070  0.797030  0.123280  1.0  0.1562
  C  C464  1  0.464200  0.715960  0.120430  1.0  0.7322
  C  C465  1  0.050660  0.284490  0.659120  1.0  0.0357
  C  C466  1  0.011910  0.247150  0.657910  1.0  -0.021
  C  C467  1  0.990190  0.232660  0.623870  1.0  -0.1733
  C  C468  1  0.007500  0.256330  0.591900  1.0  -0.0585
  C  C469  1  0.046120  0.293790  0.594970  1.0  0.1882
  C  C470  1  0.066000  0.322630  0.563680  1.0  0.193
  C  C471  1  0.044820  0.318580  0.527960  1.0  -0.0516
  C  C472  1  0.066690  0.348480  0.500670  1.0  -0.138
  C  C473  1  0.109260  0.381100  0.509890  1.0  -0.0605
  C  C474  1  0.127530  0.384290  0.545990  1.0  0.0645
  C  C475  1  0.947010  0.192540  0.621570  1.0  0.7216
  C  C476  1  0.043700  0.345310  0.461150  1.0  0.7561
  C  C477  1  0.013230  0.404750  0.633920  1.0  0.1416
  C  C478  1  0.977880  0.444510  0.635080  1.0  -0.0469
  C  C479  1  0.001600  0.489530  0.630770  1.0  -0.0549
  C  C480  1  0.060300  0.493940  0.626780  1.0  -0.0415
  C  C481  1  0.094070  0.452970  0.626720  1.0  0.159
  C  C482  1  0.964200  0.534040  0.629570  1.0  0.7323
  C  C483  1  0.050660  0.784490  0.159120  1.0  0.0357
  C  C484  1  0.011910  0.747150  0.157910  1.0  -0.021
  C  C485  1  0.990190  0.732660  0.123870  1.0  -0.1733
  C  C486  1  0.007500  0.756330  0.091900  1.0  -0.0585
  C  C487  1  0.046120  0.793790  0.094970  1.0  0.1882
  C  C488  1  0.066000  0.822630  0.063680  1.0  0.193
  C  C489  1  0.044820  0.818580  0.027960  1.0  -0.0516
  C  C490  1  0.066690  0.848480  0.000670  1.0  -0.138
  C  C491  1  0.109260  0.881100  0.009890  1.0  -0.0605
  C  C492  1  0.127530  0.884290  0.045990  1.0  0.0645
  C  C493  1  0.947010  0.692540  0.121570  1.0  0.7216
  C  C494  1  0.043700  0.845310  0.961150  1.0  0.7561
  C  C495  1  0.013230  0.904750  0.133920  1.0  0.1416
  C  C496  1  0.977880  0.944510  0.135080  1.0  -0.0469
  C  C497  1  0.001600  0.989530  0.130770  1.0  -0.0549
  C  C498  1  0.060300  0.993940  0.126780  1.0  -0.0415
  C  C499  1  0.094070  0.952970  0.126720  1.0  0.159
  C  C500  1  0.964200  0.034040  0.129570  1.0  0.7323
  C  C501  1  0.550660  0.284490  0.159120  1.0  0.0357
  C  C502  1  0.511910  0.247150  0.157910  1.0  -0.021
  C  C503  1  0.490190  0.232660  0.123870  1.0  -0.1733
  C  C504  1  0.507500  0.256330  0.091900  1.0  -0.0585
  C  C505  1  0.546120  0.293790  0.094970  1.0  0.1882
  C  C506  1  0.566000  0.322630  0.063680  1.0  0.193
  C  C507  1  0.544820  0.318580  0.027960  1.0  -0.0516
  C  C508  1  0.566690  0.348480  0.000670  1.0  -0.138
  C  C509  1  0.609260  0.381100  0.009890  1.0  -0.0605
  C  C510  1  0.627530  0.384290  0.045990  1.0  0.0645
  C  C511  1  0.447010  0.192540  0.121570  1.0  0.7216
  C  C512  1  0.543700  0.345310  0.961150  1.0  0.7561
  C  C513  1  0.513230  0.404750  0.133920  1.0  0.1416
  C  C514  1  0.477880  0.444510  0.135080  1.0  -0.0469
  C  C515  1  0.501600  0.489530  0.130770  1.0  -0.0549
  C  C516  1  0.560300  0.493940  0.126780  1.0  -0.0415
  C  C517  1  0.594070  0.452970  0.126720  1.0  0.159
  C  C518  1  0.464200  0.534040  0.129570  1.0  0.7323
  C  C519  1  0.550660  0.784490  0.659120  1.0  0.0357
  C  C520  1  0.511910  0.747150  0.657910  1.0  -0.021
  C  C521  1  0.490190  0.732660  0.623870  1.0  -0.1733
  C  C522  1  0.507500  0.756330  0.591900  1.0  -0.0585
  C  C523  1  0.546120  0.793790  0.594970  1.0  0.1882
  C  C524  1  0.566000  0.822630  0.563680  1.0  0.193
  C  C525  1  0.544820  0.818580  0.527960  1.0  -0.0516
  C  C526  1  0.566690  0.848480  0.500670  1.0  -0.138
  C  C527  1  0.609260  0.881100  0.509890  1.0  -0.0605
  C  C528  1  0.627530  0.884290  0.545990  1.0  0.0645
  C  C529  1  0.447010  0.692540  0.621570  1.0  0.7216
  C  C530  1  0.543700  0.845310  0.461150  1.0  0.7561
  C  C531  1  0.513230  0.904750  0.633920  1.0  0.1416
  C  C532  1  0.477880  0.944510  0.635080  1.0  -0.0469
  C  C533  1  0.501600  0.989530  0.630770  1.0  -0.0549
  C  C534  1  0.560300  0.993940  0.626780  1.0  -0.0415
  C  C535  1  0.594070  0.952970  0.626720  1.0  0.159
  C  C536  1  0.464200  0.034040  0.629570  1.0  0.7323
  C  C537  1  0.699340  0.465510  0.659120  1.0  0.0356
  C  C538  1  0.738090  0.502850  0.657910  1.0  -0.0211
  C  C539  1  0.759810  0.517340  0.623870  1.0  -0.1744
  C  C540  1  0.742500  0.493670  0.591900  1.0  -0.0609
  C  C541  1  0.703880  0.456210  0.594970  1.0  0.1899
  C  C542  1  0.684000  0.427370  0.563680  1.0  0.1936
  C  C543  1  0.705180  0.431420  0.527960  1.0  -0.0501
  C  C544  1  0.683310  0.401520  0.500670  1.0  -0.1371
  C  C545  1  0.640740  0.368900  0.509890  1.0  -0.0609
  C  C546  1  0.622470  0.365710  0.545990  1.0  0.0644
  C  C547  1  0.802990  0.557460  0.621570  1.0  0.7194
  C  C548  1  0.706300  0.404690  0.461150  1.0  0.7552
  C  C549  1  0.736770  0.345250  0.633920  1.0  0.1436
  C  C550  1  0.772120  0.305490  0.635080  1.0  -0.0461
  C  C551  1  0.748400  0.260470  0.630770  1.0  -0.0567
  C  C552  1  0.689700  0.256060  0.626780  1.0  -0.0396
  C  C553  1  0.655930  0.297030  0.626720  1.0  0.1552
  C  C554  1  0.785800  0.215960  0.629570  1.0  0.7327
  C  C555  1  0.699340  0.965510  0.159120  1.0  0.0356
  C  C556  1  0.738090  0.002850  0.157910  1.0  -0.0211
  C  C557  1  0.759810  0.017340  0.123870  1.0  -0.1744
  C  C558  1  0.742500  0.993670  0.091900  1.0  -0.0609
  C  C559  1  0.703880  0.956210  0.094970  1.0  0.1899
  C  C560  1  0.684000  0.927370  0.063680  1.0  0.1936
  C  C561  1  0.705180  0.931420  0.027960  1.0  -0.0501
  C  C562  1  0.683310  0.901520  0.000670  1.0  -0.1371
  C  C563  1  0.640740  0.868900  0.009890  1.0  -0.0609
  C  C564  1  0.622470  0.865710  0.045990  1.0  0.0644
  C  C565  1  0.802990  0.057460  0.121570  1.0  0.7194
  C  C566  1  0.706300  0.904690  0.961150  1.0  0.7552
  C  C567  1  0.736770  0.845250  0.133920  1.0  0.1436
  C  C568  1  0.772120  0.805490  0.135080  1.0  -0.0461
  C  C569  1  0.748400  0.760470  0.130770  1.0  -0.0567
  C  C570  1  0.689700  0.756060  0.126780  1.0  -0.0396
  C  C571  1  0.655930  0.797030  0.126720  1.0  0.1552
  C  C572  1  0.785800  0.715960  0.129570  1.0  0.7327
  C  C573  1  0.199340  0.465510  0.159120  1.0  0.0356
  C  C574  1  0.238090  0.502850  0.157910  1.0  -0.0211
  C  C575  1  0.259810  0.517340  0.123870  1.0  -0.1744
  C  C576  1  0.242500  0.493670  0.091900  1.0  -0.0609
  C  C577  1  0.203880  0.456210  0.094970  1.0  0.1899
  C  C578  1  0.184000  0.427370  0.063680  1.0  0.1936
  C  C579  1  0.205180  0.431420  0.027960  1.0  -0.0501
  C  C580  1  0.183310  0.401520  0.000670  1.0  -0.1371
  C  C581  1  0.140740  0.368900  0.009890  1.0  -0.0609
  C  C582  1  0.122470  0.365710  0.045990  1.0  0.0644
  C  C583  1  0.302990  0.557460  0.121570  1.0  0.7194
  C  C584  1  0.206300  0.404690  0.961150  1.0  0.7552
  C  C585  1  0.236770  0.345250  0.133920  1.0  0.1436
  C  C586  1  0.272120  0.305490  0.135080  1.0  -0.0461
  C  C587  1  0.248400  0.260470  0.130770  1.0  -0.0567
  C  C588  1  0.189700  0.256060  0.126780  1.0  -0.0396
  C  C589  1  0.155930  0.297030  0.126720  1.0  0.1552
  C  C590  1  0.285800  0.215960  0.129570  1.0  0.7327
  C  C591  1  0.199340  0.965510  0.659120  1.0  0.0356
  C  C592  1  0.238090  0.002850  0.657910  1.0  -0.0211
  C  C593  1  0.259810  0.017340  0.623870  1.0  -0.1744
  C  C594  1  0.242500  0.993670  0.591900  1.0  -0.0609
  C  C595  1  0.203880  0.956210  0.594970  1.0  0.1899
  C  C596  1  0.184000  0.927370  0.563680  1.0  0.1936
  C  C597  1  0.205180  0.931420  0.527960  1.0  -0.0501
  C  C598  1  0.183310  0.901520  0.500670  1.0  -0.1371
  C  C599  1  0.140740  0.868900  0.509890  1.0  -0.0609
  C  C600  1  0.122470  0.865710  0.545990  1.0  0.0644
  C  C601  1  0.302990  0.057460  0.621570  1.0  0.7194
  C  C602  1  0.206300  0.904690  0.461150  1.0  0.7552
  C  C603  1  0.236770  0.845250  0.633920  1.0  0.1436
  C  C604  1  0.272120  0.805490  0.635080  1.0  -0.0461
  C  C605  1  0.248400  0.760470  0.630770  1.0  -0.0567
  C  C606  1  0.189700  0.756060  0.626780  1.0  -0.0396
  C  C607  1  0.155930  0.797030  0.626720  1.0  0.1552
  C  C608  1  0.285800  0.715960  0.629570  1.0  0.7327
  C  C609  1  0.300660  0.715510  0.909120  1.0  0.0357
  C  C610  1  0.261910  0.752850  0.907910  1.0  -0.0208
  C  C611  1  0.240190  0.767340  0.873870  1.0  -0.1732
  C  C612  1  0.257500  0.743670  0.841900  1.0  -0.06
  C  C613  1  0.296120  0.706210  0.844970  1.0  0.1895
  C  C614  1  0.316000  0.677370  0.813680  1.0  0.1928
  C  C615  1  0.294820  0.681420  0.777960  1.0  -0.0513
  C  C616  1  0.316690  0.651520  0.750670  1.0  -0.138
  C  C617  1  0.359260  0.618900  0.759890  1.0  -0.0611
  C  C618  1  0.377530  0.615710  0.795990  1.0  0.0634
  C  C619  1  0.197010  0.807460  0.871570  1.0  0.7217
  C  C620  1  0.293700  0.654690  0.711150  1.0  0.756
  C  C621  1  0.263230  0.595250  0.883920  1.0  0.1417
  C  C622  1  0.227880  0.555490  0.885080  1.0  -0.0468
  C  C623  1  0.251600  0.510470  0.880770  1.0  -0.0559
  C  C624  1  0.310300  0.506060  0.876780  1.0  -0.0401
  C  C625  1  0.344070  0.547030  0.876720  1.0  0.1561
  C  C626  1  0.214200  0.465960  0.879570  1.0  0.7326
  C  C627  1  0.300660  0.215510  0.409120  1.0  0.0357
  C  C628  1  0.261910  0.252850  0.407910  1.0  -0.0208
  C  C629  1  0.240190  0.267340  0.373870  1.0  -0.1732
  C  C630  1  0.257500  0.243670  0.341900  1.0  -0.06
  C  C631  1  0.296120  0.206210  0.344970  1.0  0.1895
  C  C632  1  0.316000  0.177370  0.313680  1.0  0.1928
  C  C633  1  0.294820  0.181420  0.277960  1.0  -0.0513
  C  C634  1  0.316690  0.151520  0.250670  1.0  -0.138
  C  C635  1  0.359260  0.118900  0.259890  1.0  -0.0611
  C  C636  1  0.377530  0.115710  0.295990  1.0  0.0634
  C  C637  1  0.197010  0.307460  0.371570  1.0  0.7217
  C  C638  1  0.293700  0.154690  0.211150  1.0  0.756
  C  C639  1  0.263230  0.095250  0.383920  1.0  0.1417
  C  C640  1  0.227880  0.055490  0.385080  1.0  -0.0468
  C  C641  1  0.251600  0.010470  0.380770  1.0  -0.0559
  C  C642  1  0.310300  0.006060  0.376780  1.0  -0.0401
  C  C643  1  0.344070  0.047030  0.376720  1.0  0.1561
  C  C644  1  0.214200  0.965960  0.379570  1.0  0.7326
  C  C645  1  0.800660  0.715510  0.409120  1.0  0.0357
  C  C646  1  0.761910  0.752850  0.407910  1.0  -0.0208
  C  C647  1  0.740190  0.767340  0.373870  1.0  -0.1732
  C  C648  1  0.757500  0.743670  0.341900  1.0  -0.06
  C  C649  1  0.796120  0.706210  0.344970  1.0  0.1895
  C  C650  1  0.816000  0.677370  0.313680  1.0  0.1928
  C  C651  1  0.794820  0.681420  0.277960  1.0  -0.0513
  C  C652  1  0.816690  0.651520  0.250670  1.0  -0.138
  C  C653  1  0.859260  0.618900  0.259890  1.0  -0.0611
  C  C654  1  0.877530  0.615710  0.295990  1.0  0.0634
  C  C655  1  0.697010  0.807460  0.371570  1.0  0.7217
  C  C656  1  0.793700  0.654690  0.211150  1.0  0.756
  C  C657  1  0.763230  0.595250  0.383920  1.0  0.1417
  C  C658  1  0.727880  0.555490  0.385080  1.0  -0.0468
  C  C659  1  0.751600  0.510470  0.380770  1.0  -0.0559
  C  C660  1  0.810300  0.506060  0.376780  1.0  -0.0401
  C  C661  1  0.844070  0.547030  0.376720  1.0  0.1561
  C  C662  1  0.714200  0.465960  0.379570  1.0  0.7326
  C  C663  1  0.800660  0.215510  0.909120  1.0  0.0357
  C  C664  1  0.761910  0.252850  0.907910  1.0  -0.0208
  C  C665  1  0.740190  0.267340  0.873870  1.0  -0.1732
  C  C666  1  0.757500  0.243670  0.841900  1.0  -0.06
  C  C667  1  0.796120  0.206210  0.844970  1.0  0.1895
  C  C668  1  0.816000  0.177370  0.813680  1.0  0.1928
  C  C669  1  0.794820  0.181420  0.777960  1.0  -0.0513
  C  C670  1  0.816690  0.151520  0.750670  1.0  -0.138
  C  C671  1  0.859260  0.118900  0.759890  1.0  -0.0611
  C  C672  1  0.877530  0.115710  0.795990  1.0  0.0634
  C  C673  1  0.697010  0.307460  0.871570  1.0  0.7217
  C  C674  1  0.793700  0.154690  0.711150  1.0  0.756
  C  C675  1  0.763230  0.095250  0.883920  1.0  0.1417
  C  C676  1  0.727880  0.055490  0.885080  1.0  -0.0468
  C  C677  1  0.751600  0.010470  0.880770  1.0  -0.0559
  C  C678  1  0.810300  0.006060  0.876780  1.0  -0.0401
  C  C679  1  0.844070  0.047030  0.876720  1.0  0.1561
  C  C680  1  0.714200  0.965960  0.879570  1.0  0.7326
  C  C681  1  0.949340  0.534490  0.909120  1.0  0.0356
  C  C682  1  0.988090  0.497150  0.907910  1.0  -0.0218
  C  C683  1  0.009810  0.482660  0.873870  1.0  -0.1735
  C  C684  1  0.992500  0.506330  0.841900  1.0  -0.0596
  C  C685  1  0.953880  0.543790  0.844970  1.0  0.1888
  C  C686  1  0.934000  0.572630  0.813680  1.0  0.1947
  C  C687  1  0.955180  0.568580  0.777960  1.0  -0.0503
  C  C688  1  0.933310  0.598480  0.750670  1.0  -0.1369
  C  C689  1  0.890740  0.631100  0.759890  1.0  -0.0604
  C  C690  1  0.872470  0.634290  0.795990  1.0  0.0648
  C  C691  1  0.052990  0.442540  0.871570  1.0  0.7193
  C  C692  1  0.956300  0.595310  0.711150  1.0  0.7552
  C  C693  1  0.986770  0.654750  0.883920  1.0  0.1425
  C  C694  1  0.022120  0.694510  0.885080  1.0  -0.0457
  C  C695  1  0.998400  0.739530  0.880770  1.0  -0.0566
  C  C696  1  0.939700  0.743940  0.876780  1.0  -0.0412
  C  C697  1  0.905930  0.702970  0.876720  1.0  0.1586
  C  C698  1  0.035800  0.784040  0.879570  1.0  0.7325
  C  C699  1  0.949340  0.034490  0.409120  1.0  0.0356
  C  C700  1  0.988090  0.997150  0.407910  1.0  -0.0218
  C  C701  1  0.009810  0.982660  0.373870  1.0  -0.1735
  C  C702  1  0.992500  0.006330  0.341900  1.0  -0.0596
  C  C703  1  0.953880  0.043790  0.344970  1.0  0.1888
  C  C704  1  0.934000  0.072630  0.313680  1.0  0.1947
  C  C705  1  0.955180  0.068580  0.277960  1.0  -0.0503
  C  C706  1  0.933310  0.098480  0.250670  1.0  -0.1369
  C  C707  1  0.890740  0.131100  0.259890  1.0  -0.0604
  C  C708  1  0.872470  0.134290  0.295990  1.0  0.0648
  C  C709  1  0.052990  0.942540  0.371570  1.0  0.7193
  C  C710  1  0.956300  0.095310  0.211150  1.0  0.7552
  C  C711  1  0.986770  0.154750  0.383920  1.0  0.1425
  C  C712  1  0.022120  0.194510  0.385080  1.0  -0.0457
  C  C713  1  0.998400  0.239530  0.380770  1.0  -0.0566
  C  C714  1  0.939700  0.243940  0.376780  1.0  -0.0412
  C  C715  1  0.905930  0.202970  0.376720  1.0  0.1586
  C  C716  1  0.035800  0.284040  0.379570  1.0  0.7325
  C  C717  1  0.449340  0.534490  0.409120  1.0  0.0356
  C  C718  1  0.488090  0.497150  0.407910  1.0  -0.0218
  C  C719  1  0.509810  0.482660  0.373870  1.0  -0.1735
  C  C720  1  0.492500  0.506330  0.341900  1.0  -0.0596
  C  C721  1  0.453880  0.543790  0.344970  1.0  0.1888
  C  C722  1  0.434000  0.572630  0.313680  1.0  0.1947
  C  C723  1  0.455180  0.568580  0.277960  1.0  -0.0503
  C  C724  1  0.433310  0.598480  0.250670  1.0  -0.1369
  C  C725  1  0.390740  0.631100  0.259890  1.0  -0.0604
  C  C726  1  0.372470  0.634290  0.295990  1.0  0.0648
  C  C727  1  0.552990  0.442540  0.371570  1.0  0.7193
  C  C728  1  0.456300  0.595310  0.211150  1.0  0.7552
  C  C729  1  0.486770  0.654750  0.383920  1.0  0.1425
  C  C730  1  0.522120  0.694510  0.385080  1.0  -0.0457
  C  C731  1  0.498400  0.739530  0.380770  1.0  -0.0566
  C  C732  1  0.439700  0.743940  0.376780  1.0  -0.0412
  C  C733  1  0.405930  0.702970  0.376720  1.0  0.1586
  C  C734  1  0.535800  0.784040  0.379570  1.0  0.7325
  C  C735  1  0.449340  0.034490  0.909120  1.0  0.0356
  C  C736  1  0.488090  0.997150  0.907910  1.0  -0.0218
  C  C737  1  0.509810  0.982660  0.873870  1.0  -0.1735
  C  C738  1  0.492500  0.006330  0.841900  1.0  -0.0596
  C  C739  1  0.453880  0.043790  0.844970  1.0  0.1888
  C  C740  1  0.434000  0.072630  0.813680  1.0  0.1947
  C  C741  1  0.455180  0.068580  0.777960  1.0  -0.0503
  C  C742  1  0.433310  0.098480  0.750670  1.0  -0.1369
  C  C743  1  0.390740  0.131100  0.759890  1.0  -0.0604
  C  C744  1  0.372470  0.134290  0.795990  1.0  0.0648
  C  C745  1  0.552990  0.942540  0.871570  1.0  0.7193
  C  C746  1  0.456300  0.095310  0.711150  1.0  0.7552
  C  C747  1  0.486770  0.154750  0.883920  1.0  0.1425
  C  C748  1  0.522120  0.194510  0.885080  1.0  -0.0457
  C  C749  1  0.498400  0.239530  0.880770  1.0  -0.0566
  C  C750  1  0.439700  0.243940  0.876780  1.0  -0.0412
  C  C751  1  0.405930  0.202970  0.876720  1.0  0.1586
  C  C752  1  0.535800  0.284040  0.879570  1.0  0.7325
  C  C753  1  0.949340  0.715510  0.340880  1.0  0.0378
  C  C754  1  0.988090  0.752850  0.342090  1.0  -0.0214
  C  C755  1  0.009810  0.767340  0.376130  1.0  -0.1742
  C  C756  1  0.992500  0.743670  0.408100  1.0  -0.0624
  C  C757  1  0.953880  0.706210  0.405030  1.0  0.1901
  C  C758  1  0.934000  0.677370  0.436320  1.0  0.1932
  C  C759  1  0.955180  0.681420  0.472040  1.0  -0.0498
  C  C760  1  0.933310  0.651520  0.499330  1.0  -0.1391
  C  C761  1  0.890740  0.618900  0.490110  1.0  -0.0614
  C  C762  1  0.872470  0.615710  0.454010  1.0  0.0648
  C  C763  1  0.052990  0.807460  0.378430  1.0  0.7193
  C  C764  1  0.956300  0.654690  0.538850  1.0  0.7572
  C  C765  1  0.986770  0.595250  0.366080  1.0  0.1437
  C  C766  1  0.022120  0.555490  0.364920  1.0  -0.0454
  C  C767  1  0.998400  0.510470  0.369230  1.0  -0.0566
  C  C768  1  0.939700  0.506060  0.373220  1.0  -0.0391
  C  C769  1  0.905930  0.547030  0.373280  1.0  0.1553
  C  C770  1  0.035800  0.465960  0.370430  1.0  0.7325
  C  C771  1  0.949340  0.215510  0.840880  1.0  0.0378
  C  C772  1  0.988090  0.252850  0.842090  1.0  -0.0214
  C  C773  1  0.009810  0.267340  0.876130  1.0  -0.1742
  C  C774  1  0.992500  0.243670  0.908100  1.0  -0.0624
  C  C775  1  0.953880  0.206210  0.905030  1.0  0.1901
  C  C776  1  0.934000  0.177370  0.936320  1.0  0.1932
  C  C777  1  0.955180  0.181420  0.972040  1.0  -0.0498
  C  C778  1  0.933310  0.151520  0.999330  1.0  -0.1391
  C  C779  1  0.890740  0.118900  0.990110  1.0  -0.0614
  C  C780  1  0.872470  0.115710  0.954010  1.0  0.0648
  C  C781  1  0.052990  0.307460  0.878430  1.0  0.7193
  C  C782  1  0.956300  0.154690  0.038850  1.0  0.7572
  C  C783  1  0.986770  0.095250  0.866080  1.0  0.1437
  C  C784  1  0.022120  0.055490  0.864920  1.0  -0.0454
  C  C785  1  0.998400  0.010470  0.869230  1.0  -0.0566
  C  C786  1  0.939700  0.006060  0.873220  1.0  -0.0391
  C  C787  1  0.905930  0.047030  0.873280  1.0  0.1553
  C  C788  1  0.035800  0.965960  0.870430  1.0  0.7325
  C  C789  1  0.449340  0.715510  0.840880  1.0  0.0378
  C  C790  1  0.488090  0.752850  0.842090  1.0  -0.0214
  C  C791  1  0.509810  0.767340  0.876130  1.0  -0.1742
  C  C792  1  0.492500  0.743670  0.908100  1.0  -0.0624
  C  C793  1  0.453880  0.706210  0.905030  1.0  0.1901
  C  C794  1  0.434000  0.677370  0.936320  1.0  0.1932
  C  C795  1  0.455180  0.681420  0.972040  1.0  -0.0498
  C  C796  1  0.433310  0.651520  0.999330  1.0  -0.1391
  C  C797  1  0.390740  0.618900  0.990110  1.0  -0.0614
  C  C798  1  0.372470  0.615710  0.954010  1.0  0.0648
  C  C799  1  0.552990  0.807460  0.878430  1.0  0.7193
  C  C800  1  0.456300  0.654690  0.038850  1.0  0.7572
  C  C801  1  0.486770  0.595250  0.866080  1.0  0.1437
  C  C802  1  0.522120  0.555490  0.864920  1.0  -0.0454
  C  C803  1  0.498400  0.510470  0.869230  1.0  -0.0566
  C  C804  1  0.439700  0.506060  0.873220  1.0  -0.0391
  C  C805  1  0.405930  0.547030  0.873280  1.0  0.1553
  C  C806  1  0.535800  0.465960  0.870430  1.0  0.7325
  C  C807  1  0.449340  0.215510  0.340880  1.0  0.0378
  C  C808  1  0.488090  0.252850  0.342090  1.0  -0.0214
  C  C809  1  0.509810  0.267340  0.376130  1.0  -0.1742
  C  C810  1  0.492500  0.243670  0.408100  1.0  -0.0624
  C  C811  1  0.453880  0.206210  0.405030  1.0  0.1901
  C  C812  1  0.434000  0.177370  0.436320  1.0  0.1932
  C  C813  1  0.455180  0.181420  0.472040  1.0  -0.0498
  C  C814  1  0.433310  0.151520  0.499330  1.0  -0.1391
  C  C815  1  0.390740  0.118900  0.490110  1.0  -0.0614
  C  C816  1  0.372470  0.115710  0.454010  1.0  0.0648
  C  C817  1  0.552990  0.307460  0.378430  1.0  0.7193
  C  C818  1  0.456300  0.154690  0.538850  1.0  0.7572
  C  C819  1  0.486770  0.095250  0.366080  1.0  0.1437
  C  C820  1  0.522120  0.055490  0.364920  1.0  -0.0454
  C  C821  1  0.498400  0.010470  0.369230  1.0  -0.0566
  C  C822  1  0.439700  0.006060  0.373220  1.0  -0.0391
  C  C823  1  0.405930  0.047030  0.373280  1.0  0.1553
  C  C824  1  0.535800  0.965960  0.370430  1.0  0.7325
  C  C825  1  0.300660  0.534490  0.340880  1.0  0.0365
  C  C826  1  0.261910  0.497150  0.342090  1.0  -0.0203
  C  C827  1  0.240190  0.482660  0.376130  1.0  -0.173
  C  C828  1  0.257500  0.506330  0.408100  1.0  -0.062
  C  C829  1  0.296120  0.543790  0.405030  1.0  0.1887
  C  C830  1  0.316000  0.572630  0.436320  1.0  0.1918
  C  C831  1  0.294820  0.568580  0.472040  1.0  -0.0524
  C  C832  1  0.316690  0.598480  0.499330  1.0  -0.1398
  C  C833  1  0.359260  0.631100  0.490110  1.0  -0.0596
  C  C834  1  0.377530  0.634290  0.454010  1.0  0.0649
  C  C835  1  0.197010  0.442540  0.378430  1.0  0.7215
  C  C836  1  0.293700  0.595310  0.538850  1.0  0.7559
  C  C837  1  0.263230  0.654750  0.366080  1.0  0.1414
  C  C838  1  0.227880  0.694510  0.364920  1.0  -0.0472
  C  C839  1  0.251600  0.739530  0.369230  1.0  -0.0552
  C  C840  1  0.310300  0.743940  0.373220  1.0  -0.0413
  C  C841  1  0.344070  0.702970  0.373280  1.0  0.1592
  C  C842  1  0.214200  0.784040  0.370430  1.0  0.732
  C  C843  1  0.300660  0.034490  0.840880  1.0  0.0365
  C  C844  1  0.261910  0.997150  0.842090  1.0  -0.0203
  C  C845  1  0.240190  0.982660  0.876130  1.0  -0.173
  C  C846  1  0.257500  0.006330  0.908100  1.0  -0.062
  C  C847  1  0.296120  0.043790  0.905030  1.0  0.1887
  C  C848  1  0.316000  0.072630  0.936320  1.0  0.1918
  C  C849  1  0.294820  0.068580  0.972040  1.0  -0.0524
  C  C850  1  0.316690  0.098480  0.999330  1.0  -0.1398
  C  C851  1  0.359260  0.131100  0.990110  1.0  -0.0596
  C  C852  1  0.377530  0.134290  0.954010  1.0  0.0649
  C  C853  1  0.197010  0.942540  0.878430  1.0  0.7215
  C  C854  1  0.293700  0.095310  0.038850  1.0  0.7559
  C  C855  1  0.263230  0.154750  0.866080  1.0  0.1414
  C  C856  1  0.227880  0.194510  0.864920  1.0  -0.0472
  C  C857  1  0.251600  0.239530  0.869230  1.0  -0.0552
  C  C858  1  0.310300  0.243940  0.873220  1.0  -0.0413
  C  C859  1  0.344070  0.202970  0.873280  1.0  0.1592
  C  C860  1  0.214200  0.284040  0.870430  1.0  0.732
  C  C861  1  0.800660  0.534490  0.840880  1.0  0.0365
  C  C862  1  0.761910  0.497150  0.842090  1.0  -0.0203
  C  C863  1  0.740190  0.482660  0.876130  1.0  -0.173
  C  C864  1  0.757500  0.506330  0.908100  1.0  -0.062
  C  C865  1  0.796120  0.543790  0.905030  1.0  0.1887
  C  C866  1  0.816000  0.572630  0.936320  1.0  0.1918
  C  C867  1  0.794820  0.568580  0.972040  1.0  -0.0524
  C  C868  1  0.816690  0.598480  0.999330  1.0  -0.1398
  C  C869  1  0.859260  0.631100  0.990110  1.0  -0.0596
  C  C870  1  0.877530  0.634290  0.954010  1.0  0.0649
  C  C871  1  0.697010  0.442540  0.878430  1.0  0.7215
  C  C872  1  0.793700  0.595310  0.038850  1.0  0.7559
  C  C873  1  0.763230  0.654750  0.866080  1.0  0.1414
  C  C874  1  0.727880  0.694510  0.864920  1.0  -0.0472
  C  C875  1  0.751600  0.739530  0.869230  1.0  -0.0552
  C  C876  1  0.810300  0.743940  0.873220  1.0  -0.0413
  C  C877  1  0.844070  0.702970  0.873280  1.0  0.1592
  C  C878  1  0.714200  0.784040  0.870430  1.0  0.732
  C  C879  1  0.800660  0.034490  0.340880  1.0  0.0365
  C  C880  1  0.761910  0.997150  0.342090  1.0  -0.0203
  C  C881  1  0.740190  0.982660  0.376130  1.0  -0.173
  C  C882  1  0.757500  0.006330  0.408100  1.0  -0.062
  C  C883  1  0.796120  0.043790  0.405030  1.0  0.1887
  C  C884  1  0.816000  0.072630  0.436320  1.0  0.1918
  C  C885  1  0.794820  0.068580  0.472040  1.0  -0.0524
  C  C886  1  0.816690  0.098480  0.499330  1.0  -0.1398
  C  C887  1  0.859260  0.131100  0.490110  1.0  -0.0596
  C  C888  1  0.877530  0.134290  0.454010  1.0  0.0649
  C  C889  1  0.697010  0.942540  0.378430  1.0  0.7215
  C  C890  1  0.793700  0.095310  0.538850  1.0  0.7559
  C  C891  1  0.763230  0.154750  0.366080  1.0  0.1414
  C  C892  1  0.727880  0.194510  0.364920  1.0  -0.0472
  C  C893  1  0.751600  0.239530  0.369230  1.0  -0.0552
  C  C894  1  0.810300  0.243940  0.373220  1.0  -0.0413
  C  C895  1  0.844070  0.202970  0.373280  1.0  0.1592
  C  C896  1  0.714200  0.284040  0.370430  1.0  0.732
  N  N897  1  0.682060  0.307330  0.121800  1.0  -0.3195
  N  N898  1  0.643590  0.355550  0.177350  1.0  -0.3258
  N  N899  1  0.679800  0.408810  0.120300  1.0  -0.3427
  N  N900  1  0.682060  0.807330  0.621800  1.0  -0.3195
  N  N901  1  0.643590  0.855550  0.677350  1.0  -0.3258
  N  N902  1  0.679800  0.908810  0.620300  1.0  -0.3427
  N  N903  1  0.182060  0.307330  0.621800  1.0  -0.3195
  N  N904  1  0.143590  0.355550  0.677350  1.0  -0.3258
  N  N905  1  0.179800  0.408810  0.620300  1.0  -0.3427
  N  N906  1  0.182060  0.807330  0.121800  1.0  -0.3195
  N  N907  1  0.143590  0.855550  0.177350  1.0  -0.3258
  N  N908  1  0.179800  0.908810  0.120300  1.0  -0.3427
  N  N909  1  0.067940  0.442670  0.121800  1.0  -0.3191
  N  N910  1  0.106410  0.394450  0.177350  1.0  -0.3256
  N  N911  1  0.070200  0.341190  0.120300  1.0  -0.3433
  N  N912  1  0.067940  0.942670  0.621800  1.0  -0.3191
  N  N913  1  0.106410  0.894450  0.677350  1.0  -0.3256
  N  N914  1  0.070200  0.841190  0.620300  1.0  -0.3433
  N  N915  1  0.567940  0.442670  0.621800  1.0  -0.3191
  N  N916  1  0.606410  0.394450  0.677350  1.0  -0.3256
  N  N917  1  0.570200  0.341190  0.620300  1.0  -0.3433
  N  N918  1  0.567940  0.942670  0.121800  1.0  -0.3191
  N  N919  1  0.606410  0.894450  0.177350  1.0  -0.3256
  N  N920  1  0.570200  0.841190  0.120300  1.0  -0.3433
  N  N921  1  0.067940  0.307330  0.628200  1.0  -0.3193
  N  N922  1  0.106410  0.355550  0.572650  1.0  -0.3238
  N  N923  1  0.070200  0.408810  0.629700  1.0  -0.342
  N  N924  1  0.067940  0.807330  0.128200  1.0  -0.3193
  N  N925  1  0.106410  0.855550  0.072650  1.0  -0.3238
  N  N926  1  0.070200  0.908810  0.129700  1.0  -0.342
  N  N927  1  0.567940  0.307330  0.128200  1.0  -0.3193
  N  N928  1  0.606410  0.355550  0.072650  1.0  -0.3238
  N  N929  1  0.570200  0.408810  0.129700  1.0  -0.342
  N  N930  1  0.567940  0.807330  0.628200  1.0  -0.3193
  N  N931  1  0.606410  0.855550  0.572650  1.0  -0.3238
  N  N932  1  0.570200  0.908810  0.629700  1.0  -0.342
  N  N933  1  0.682060  0.442670  0.628200  1.0  -0.3195
  N  N934  1  0.643590  0.394450  0.572650  1.0  -0.3243
  N  N935  1  0.679800  0.341190  0.629700  1.0  -0.3423
  N  N936  1  0.682060  0.942670  0.128200  1.0  -0.3195
  N  N937  1  0.643590  0.894450  0.072650  1.0  -0.3243
  N  N938  1  0.679800  0.841190  0.129700  1.0  -0.3423
  N  N939  1  0.182060  0.442670  0.128200  1.0  -0.3195
  N  N940  1  0.143590  0.394450  0.072650  1.0  -0.3243
  N  N941  1  0.179800  0.341190  0.129700  1.0  -0.3423
  N  N942  1  0.182060  0.942670  0.628200  1.0  -0.3195
  N  N943  1  0.143590  0.894450  0.572650  1.0  -0.3243
  N  N944  1  0.179800  0.841190  0.629700  1.0  -0.3423
  N  N945  1  0.317940  0.692670  0.878200  1.0  -0.3194
  N  N946  1  0.356410  0.644450  0.822650  1.0  -0.324
  N  N947  1  0.320200  0.591190  0.879700  1.0  -0.3433
  N  N948  1  0.317940  0.192670  0.378200  1.0  -0.3194
  N  N949  1  0.356410  0.144450  0.322650  1.0  -0.324
  N  N950  1  0.320200  0.091190  0.379700  1.0  -0.3433
  N  N951  1  0.817940  0.692670  0.378200  1.0  -0.3194
  N  N952  1  0.856410  0.644450  0.322650  1.0  -0.324
  N  N953  1  0.820200  0.591190  0.379700  1.0  -0.3433
  N  N954  1  0.817940  0.192670  0.878200  1.0  -0.3194
  N  N955  1  0.856410  0.144450  0.822650  1.0  -0.324
  N  N956  1  0.820200  0.091190  0.879700  1.0  -0.3433
  N  N957  1  0.932060  0.557330  0.878200  1.0  -0.3191
  N  N958  1  0.893590  0.605550  0.822650  1.0  -0.3241
  N  N959  1  0.929800  0.658810  0.879700  1.0  -0.3426
  N  N960  1  0.932060  0.057330  0.378200  1.0  -0.3191
  N  N961  1  0.893590  0.105550  0.322650  1.0  -0.3241
  N  N962  1  0.929800  0.158810  0.379700  1.0  -0.3426
  N  N963  1  0.432060  0.557330  0.378200  1.0  -0.3191
  N  N964  1  0.393590  0.605550  0.322650  1.0  -0.3241
  N  N965  1  0.429800  0.658810  0.379700  1.0  -0.3426
  N  N966  1  0.432060  0.057330  0.878200  1.0  -0.3191
  N  N967  1  0.393590  0.105550  0.822650  1.0  -0.3241
  N  N968  1  0.429800  0.158810  0.879700  1.0  -0.3426
  N  N969  1  0.932060  0.692670  0.371800  1.0  -0.3196
  N  N970  1  0.893590  0.644450  0.427350  1.0  -0.3259
  N  N971  1  0.929800  0.591190  0.370300  1.0  -0.3425
  N  N972  1  0.932060  0.192670  0.871800  1.0  -0.3196
  N  N973  1  0.893590  0.144450  0.927350  1.0  -0.3259
  N  N974  1  0.929800  0.091190  0.870300  1.0  -0.3425
  N  N975  1  0.432060  0.692670  0.871800  1.0  -0.3196
  N  N976  1  0.393590  0.644450  0.927350  1.0  -0.3259
  N  N977  1  0.429800  0.591190  0.870300  1.0  -0.3425
  N  N978  1  0.432060  0.192670  0.371800  1.0  -0.3196
  N  N979  1  0.393590  0.144450  0.427350  1.0  -0.3259
  N  N980  1  0.429800  0.091190  0.370300  1.0  -0.3425
  N  N981  1  0.317940  0.557330  0.371800  1.0  -0.3192
  N  N982  1  0.356410  0.605550  0.427350  1.0  -0.3254
  N  N983  1  0.320200  0.658810  0.370300  1.0  -0.3419
  N  N984  1  0.317940  0.057330  0.871800  1.0  -0.3192
  N  N985  1  0.356410  0.105550  0.927350  1.0  -0.3254
  N  N986  1  0.320200  0.158810  0.870300  1.0  -0.3419
  N  N987  1  0.817940  0.557330  0.871800  1.0  -0.3192
  N  N988  1  0.856410  0.605550  0.927350  1.0  -0.3254
  N  N989  1  0.820200  0.658810  0.870300  1.0  -0.3419
  N  N990  1  0.817940  0.057330  0.371800  1.0  -0.3192
  N  N991  1  0.856410  0.105550  0.427350  1.0  -0.3254
  N  N992  1  0.820200  0.158810  0.370300  1.0  -0.3419
  O  O993  1  0.809000  0.166870  0.100090  1.0  -0.6145
  O  O994  1  0.831640  0.186950  0.157790  1.0  -0.6545
  O  O995  1  0.750330  0.320280  0.294500  1.0  -0.5217
  O  O996  1  0.678430  0.369330  0.312010  1.0  -0.7243
  O  O997  1  0.834310  0.531700  0.105110  1.0  -0.6254
  O  O998  1  0.765700  0.570190  0.135130  1.0  -0.6219
  O  O999  1  0.809000  0.666870  0.600090  1.0  -0.6145
  O  O1000  1  0.831640  0.686950  0.657790  1.0  -0.6545
  O  O1001  1  0.750330  0.820280  0.794500  1.0  -0.5217
  O  O1002  1  0.678430  0.869330  0.812010  1.0  -0.7243
  O  O1003  1  0.834310  0.031700  0.605110  1.0  -0.6254
  O  O1004  1  0.765700  0.070190  0.635130  1.0  -0.6219
  O  O1005  1  0.309000  0.166870  0.600090  1.0  -0.6145
  O  O1006  1  0.331640  0.186950  0.657790  1.0  -0.6545
  O  O1007  1  0.250330  0.320280  0.794500  1.0  -0.5217
  O  O1008  1  0.178430  0.369330  0.812010  1.0  -0.7243
  O  O1009  1  0.334310  0.531700  0.605110  1.0  -0.6254
  O  O1010  1  0.265700  0.570190  0.635130  1.0  -0.6219
  O  O1011  1  0.309000  0.666870  0.100090  1.0  -0.6145
  O  O1012  1  0.331640  0.686950  0.157790  1.0  -0.6545
  O  O1013  1  0.250330  0.820280  0.294500  1.0  -0.5217
  O  O1014  1  0.178430  0.869330  0.312010  1.0  -0.7243
  O  O1015  1  0.334310  0.031700  0.105110  1.0  -0.6254
  O  O1016  1  0.265700  0.070190  0.135130  1.0  -0.6219
  O  O1017  1  0.941000  0.583130  0.100090  1.0  -0.6149
  O  O1018  1  0.918360  0.563050  0.157790  1.0  -0.6552
  O  O1019  1  0.999670  0.429720  0.294500  1.0  -0.5201
  O  O1020  1  0.071570  0.380670  0.312010  1.0  -0.7253
  O  O1021  1  0.915690  0.218300  0.105110  1.0  -0.6238
  O  O1022  1  0.984300  0.179810  0.135130  1.0  -0.6213
  O  O1023  1  0.941000  0.083130  0.600090  1.0  -0.6149
  O  O1024  1  0.918360  0.063050  0.657790  1.0  -0.6552
  O  O1025  1  0.999670  0.929720  0.794500  1.0  -0.5201
  O  O1026  1  0.071570  0.880670  0.812010  1.0  -0.7253
  O  O1027  1  0.915690  0.718300  0.605110  1.0  -0.6238
  O  O1028  1  0.984300  0.679810  0.635130  1.0  -0.6213
  O  O1029  1  0.441000  0.583130  0.600090  1.0  -0.6149
  O  O1030  1  0.418360  0.563050  0.657790  1.0  -0.6552
  O  O1031  1  0.499670  0.429720  0.794500  1.0  -0.5201
  O  O1032  1  0.571570  0.380670  0.812010  1.0  -0.7253
  O  O1033  1  0.415690  0.218300  0.605110  1.0  -0.6238
  O  O1034  1  0.484300  0.179810  0.635130  1.0  -0.6213
  O  O1035  1  0.441000  0.083130  0.100090  1.0  -0.6149
  O  O1036  1  0.418360  0.063050  0.157790  1.0  -0.6552
  O  O1037  1  0.499670  0.929720  0.294500  1.0  -0.5201
  O  O1038  1  0.571570  0.880670  0.312010  1.0  -0.7253
  O  O1039  1  0.415690  0.718300  0.105110  1.0  -0.6238
  O  O1040  1  0.484300  0.679810  0.135130  1.0  -0.6213
  O  O1041  1  0.941000  0.166870  0.649910  1.0  -0.614
  O  O1042  1  0.918360  0.186950  0.592210  1.0  -0.6556
  O  O1043  1  0.999670  0.320280  0.455500  1.0  -0.5207
  O  O1044  1  0.071570  0.369330  0.437990  1.0  -0.7248
  O  O1045  1  0.915690  0.531700  0.644890  1.0  -0.6239
  O  O1046  1  0.984300  0.570190  0.614870  1.0  -0.6224
  O  O1047  1  0.941000  0.666870  0.149910  1.0  -0.614
  O  O1048  1  0.918360  0.686950  0.092210  1.0  -0.6556
  O  O1049  1  0.999670  0.820280  0.955500  1.0  -0.5207
  O  O1050  1  0.071570  0.869330  0.937990  1.0  -0.7248
  O  O1051  1  0.915690  0.031700  0.144890  1.0  -0.6239
  O  O1052  1  0.984300  0.070190  0.114870  1.0  -0.6224
  O  O1053  1  0.441000  0.166870  0.149910  1.0  -0.614
  O  O1054  1  0.418360  0.186950  0.092210  1.0  -0.6556
  O  O1055  1  0.499670  0.320280  0.955500  1.0  -0.5207
  O  O1056  1  0.571570  0.369330  0.937990  1.0  -0.7248
  O  O1057  1  0.415690  0.531700  0.144890  1.0  -0.6239
  O  O1058  1  0.484300  0.570190  0.114870  1.0  -0.6224
  O  O1059  1  0.441000  0.666870  0.649910  1.0  -0.614
  O  O1060  1  0.418360  0.686950  0.592210  1.0  -0.6556
  O  O1061  1  0.499670  0.820280  0.455500  1.0  -0.5207
  O  O1062  1  0.571570  0.869330  0.437990  1.0  -0.7248
  O  O1063  1  0.415690  0.031700  0.644890  1.0  -0.6239
  O  O1064  1  0.484300  0.070190  0.614870  1.0  -0.6224
  O  O1065  1  0.809000  0.583130  0.649910  1.0  -0.6147
  O  O1066  1  0.831640  0.563050  0.592210  1.0  -0.6552
  O  O1067  1  0.750330  0.429720  0.455500  1.0  -0.5207
  O  O1068  1  0.678430  0.380670  0.437990  1.0  -0.7242
  O  O1069  1  0.834310  0.218300  0.644890  1.0  -0.6255
  O  O1070  1  0.765700  0.179810  0.614870  1.0  -0.6208
  O  O1071  1  0.809000  0.083130  0.149910  1.0  -0.6147
  O  O1072  1  0.831640  0.063050  0.092210  1.0  -0.6552
  O  O1073  1  0.750330  0.929720  0.955500  1.0  -0.5207
  O  O1074  1  0.678430  0.880670  0.937990  1.0  -0.7242
  O  O1075  1  0.834310  0.718300  0.144890  1.0  -0.6255
  O  O1076  1  0.765700  0.679810  0.114870  1.0  -0.6208
  O  O1077  1  0.309000  0.583130  0.149910  1.0  -0.6147
  O  O1078  1  0.331640  0.563050  0.092210  1.0  -0.6552
  O  O1079  1  0.250330  0.429720  0.955500  1.0  -0.5207
  O  O1080  1  0.178430  0.380670  0.937990  1.0  -0.7242
  O  O1081  1  0.334310  0.218300  0.144890  1.0  -0.6255
  O  O1082  1  0.265700  0.179810  0.114870  1.0  -0.6208
  O  O1083  1  0.309000  0.083130  0.649910  1.0  -0.6147
  O  O1084  1  0.331640  0.063050  0.592210  1.0  -0.6552
  O  O1085  1  0.250330  0.929720  0.455500  1.0  -0.5207
  O  O1086  1  0.178430  0.880670  0.437990  1.0  -0.7242
  O  O1087  1  0.334310  0.718300  0.644890  1.0  -0.6255
  O  O1088  1  0.265700  0.679810  0.614870  1.0  -0.6208
  O  O1089  1  0.191000  0.833130  0.899910  1.0  -0.6143
  O  O1090  1  0.168360  0.813050  0.842210  1.0  -0.6554
  O  O1091  1  0.249670  0.679720  0.705500  1.0  -0.5198
  O  O1092  1  0.321570  0.630670  0.687990  1.0  -0.7251
  O  O1093  1  0.165690  0.468300  0.894890  1.0  -0.6243
  O  O1094  1  0.234300  0.429810  0.864870  1.0  -0.6217
  O  O1095  1  0.191000  0.333130  0.399910  1.0  -0.6143
  O  O1096  1  0.168360  0.313050  0.342210  1.0  -0.6554
  O  O1097  1  0.249670  0.179720  0.205500  1.0  -0.5198
  O  O1098  1  0.321570  0.130670  0.187990  1.0  -0.7251
  O  O1099  1  0.165690  0.968300  0.394890  1.0  -0.6243
  O  O1100  1  0.234300  0.929810  0.364870  1.0  -0.6217
  O  O1101  1  0.691000  0.833130  0.399910  1.0  -0.6143
  O  O1102  1  0.668360  0.813050  0.342210  1.0  -0.6554
  O  O1103  1  0.749670  0.679720  0.205500  1.0  -0.5198
  O  O1104  1  0.821570  0.630670  0.187990  1.0  -0.7251
  O  O1105  1  0.665690  0.468300  0.394890  1.0  -0.6243
  O  O1106  1  0.734300  0.429810  0.364870  1.0  -0.6217
  O  O1107  1  0.691000  0.333130  0.899910  1.0  -0.6143
  O  O1108  1  0.668360  0.313050  0.842210  1.0  -0.6554
  O  O1109  1  0.749670  0.179720  0.705500  1.0  -0.5198
  O  O1110  1  0.821570  0.130670  0.687990  1.0  -0.7251
  O  O1111  1  0.665690  0.968300  0.894890  1.0  -0.6243
  O  O1112  1  0.734300  0.929810  0.864870  1.0  -0.6217
  O  O1113  1  0.059000  0.416870  0.899910  1.0  -0.614
  O  O1114  1  0.081640  0.436950  0.842210  1.0  -0.655
  O  O1115  1  0.000330  0.570280  0.705500  1.0  -0.5209
  O  O1116  1  0.928430  0.619330  0.687990  1.0  -0.7235
  O  O1117  1  0.084310  0.781700  0.894890  1.0  -0.6253
  O  O1118  1  0.015700  0.820190  0.864870  1.0  -0.6214
  O  O1119  1  0.059000  0.916870  0.399910  1.0  -0.614
  O  O1120  1  0.081640  0.936950  0.342210  1.0  -0.655
  O  O1121  1  0.000330  0.070280  0.205500  1.0  -0.5209
  O  O1122  1  0.928430  0.119330  0.187990  1.0  -0.7235
  O  O1123  1  0.084310  0.281700  0.394890  1.0  -0.6253
  O  O1124  1  0.015700  0.320190  0.364870  1.0  -0.6214
  O  O1125  1  0.559000  0.416870  0.399910  1.0  -0.614
  O  O1126  1  0.581640  0.436950  0.342210  1.0  -0.655
  O  O1127  1  0.500330  0.570280  0.205500  1.0  -0.5209
  O  O1128  1  0.428430  0.619330  0.187990  1.0  -0.7235
  O  O1129  1  0.584310  0.781700  0.394890  1.0  -0.6253
  O  O1130  1  0.515700  0.820190  0.364870  1.0  -0.6214
  O  O1131  1  0.559000  0.916870  0.899910  1.0  -0.614
  O  O1132  1  0.581640  0.936950  0.842210  1.0  -0.655
  O  O1133  1  0.500330  0.070280  0.705500  1.0  -0.5209
  O  O1134  1  0.428430  0.119330  0.687990  1.0  -0.7235
  O  O1135  1  0.584310  0.281700  0.894890  1.0  -0.6253
  O  O1136  1  0.515700  0.320190  0.864870  1.0  -0.6214
  O  O1137  1  0.059000  0.833130  0.350090  1.0  -0.6147
  O  O1138  1  0.081640  0.813050  0.407790  1.0  -0.6546
  O  O1139  1  0.000330  0.679720  0.544500  1.0  -0.521
  O  O1140  1  0.928430  0.630670  0.562010  1.0  -0.7247
  O  O1141  1  0.084310  0.468300  0.355110  1.0  -0.6248
  O  O1142  1  0.015700  0.429810  0.385130  1.0  -0.6205
  O  O1143  1  0.059000  0.333130  0.850090  1.0  -0.6147
  O  O1144  1  0.081640  0.313050  0.907790  1.0  -0.6546
  O  O1145  1  0.000330  0.179720  0.044500  1.0  -0.521
  O  O1146  1  0.928430  0.130670  0.062010  1.0  -0.7247
  O  O1147  1  0.084310  0.968300  0.855110  1.0  -0.6248
  O  O1148  1  0.015700  0.929810  0.885130  1.0  -0.6205
  O  O1149  1  0.559000  0.833130  0.850090  1.0  -0.6147
  O  O1150  1  0.581640  0.813050  0.907790  1.0  -0.6546
  O  O1151  1  0.500330  0.679720  0.044500  1.0  -0.521
  O  O1152  1  0.428430  0.630670  0.062010  1.0  -0.7247
  O  O1153  1  0.584310  0.468300  0.855110  1.0  -0.6248
  O  O1154  1  0.515700  0.429810  0.885130  1.0  -0.6205
  O  O1155  1  0.559000  0.333130  0.350090  1.0  -0.6147
  O  O1156  1  0.581640  0.313050  0.407790  1.0  -0.6546
  O  O1157  1  0.500330  0.179720  0.544500  1.0  -0.521
  O  O1158  1  0.428430  0.130670  0.562010  1.0  -0.7247
  O  O1159  1  0.584310  0.968300  0.355110  1.0  -0.6248
  O  O1160  1  0.515700  0.929810  0.385130  1.0  -0.6205
  O  O1161  1  0.191000  0.416870  0.350090  1.0  -0.6152
  O  O1162  1  0.168360  0.436950  0.407790  1.0  -0.6556
  O  O1163  1  0.249670  0.570280  0.544500  1.0  -0.5203
  O  O1164  1  0.321570  0.619330  0.562010  1.0  -0.7253
  O  O1165  1  0.165690  0.781700  0.355110  1.0  -0.6242
  O  O1166  1  0.234300  0.820190  0.385130  1.0  -0.6224
  O  O1167  1  0.191000  0.916870  0.850090  1.0  -0.6152
  O  O1168  1  0.168360  0.936950  0.907790  1.0  -0.6556
  O  O1169  1  0.249670  0.070280  0.044500  1.0  -0.5203
  O  O1170  1  0.321570  0.119330  0.062010  1.0  -0.7253
  O  O1171  1  0.165690  0.281700  0.855110  1.0  -0.6242
  O  O1172  1  0.234300  0.320190  0.885130  1.0  -0.6224
  O  O1173  1  0.691000  0.416870  0.850090  1.0  -0.6152
  O  O1174  1  0.668360  0.436950  0.907790  1.0  -0.6556
  O  O1175  1  0.749670  0.570280  0.044500  1.0  -0.5203
  O  O1176  1  0.821570  0.619330  0.062010  1.0  -0.7253
  O  O1177  1  0.665690  0.781700  0.855110  1.0  -0.6242
  O  O1178  1  0.734300  0.820190  0.885130  1.0  -0.6224
  O  O1179  1  0.691000  0.916870  0.350090  1.0  -0.6152
  O  O1180  1  0.668360  0.936950  0.407790  1.0  -0.6556
  O  O1181  1  0.749670  0.070280  0.544500  1.0  -0.5203
  O  O1182  1  0.821570  0.119330  0.562010  1.0  -0.7253
  O  O1183  1  0.665690  0.281700  0.355110  1.0  -0.6242
  O  O1184  1  0.734300  0.320190  0.385130  1.0  -0.6224
