# generated using pymatgen
data_Zn3H32C54(NO)12
_symmetry_space_group_name_H-M   'P 1'
_cell_length_a   11.43260000
_cell_length_b   40.44570000
_cell_length_c   63.89980000
_cell_angle_alpha   90.00000000
_cell_angle_beta   90.00000000
_cell_angle_gamma   90.00000000
_symmetry_Int_Tables_number   1
_chemical_formula_structural   Zn3H32C54(NO)12
_chemical_formula_sum   'Zn48 H512 C864 N192 O192'
_cell_volume   29547.23619760
_cell_formula_units_Z   16
loop_
 _symmetry_equiv_pos_site_id
 _symmetry_equiv_pos_as_xyz
  1  'x, y, z'
loop_
 _atom_site_type_symbol
 _atom_site_label
 _atom_site_symmetry_multiplicity
 _atom_site_fract_x
 _atom_site_fract_y
 _atom_site_fract_z
 _atom_site_occupancy
 _atom_site_charge
  Zn  Zn1  1  0.456420  0.540020  0.531450  1.0  0.9107
  Zn  Zn2  1  0.456420  0.040020  0.031450  1.0  0.9107
  Zn  Zn3  1  0.956420  0.540020  0.031450  1.0  0.9107
  Zn  Zn4  1  0.956420  0.040020  0.531450  1.0  0.9107
  Zn  Zn5  1  0.293580  0.209980  0.531450  1.0  0.9076
  Zn  Zn6  1  0.293580  0.709980  0.031450  1.0  0.9076
  Zn  Zn7  1  0.793580  0.209980  0.031450  1.0  0.9076
  Zn  Zn8  1  0.793580  0.709980  0.531450  1.0  0.9076
  Zn  Zn9  1  0.293580  0.540020  0.218550  1.0  0.9104
  Zn  Zn10  1  0.293580  0.040020  0.718550  1.0  0.9104
  Zn  Zn11  1  0.793580  0.540020  0.718550  1.0  0.9104
  Zn  Zn12  1  0.793580  0.040020  0.218550  1.0  0.9104
  Zn  Zn13  1  0.456420  0.209980  0.218550  1.0  0.9068
  Zn  Zn14  1  0.456420  0.709980  0.718550  1.0  0.9068
  Zn  Zn15  1  0.956420  0.209980  0.718550  1.0  0.9068
  Zn  Zn16  1  0.956420  0.709980  0.218550  1.0  0.9068
  Zn  Zn17  1  0.543580  0.459980  0.468550  1.0  0.9068
  Zn  Zn18  1  0.543580  0.959980  0.968550  1.0  0.9068
  Zn  Zn19  1  0.043580  0.459980  0.968550  1.0  0.9068
  Zn  Zn20  1  0.043580  0.959980  0.468550  1.0  0.9068
  Zn  Zn21  1  0.706420  0.790020  0.468550  1.0  0.9103
  Zn  Zn22  1  0.706420  0.290020  0.968550  1.0  0.9103
  Zn  Zn23  1  0.206420  0.790020  0.968550  1.0  0.9103
  Zn  Zn24  1  0.206420  0.290020  0.468550  1.0  0.9103
  Zn  Zn25  1  0.706420  0.459980  0.781450  1.0  0.9076
  Zn  Zn26  1  0.706420  0.959980  0.281450  1.0  0.9076
  Zn  Zn27  1  0.206420  0.459980  0.281450  1.0  0.9076
  Zn  Zn28  1  0.206420  0.959980  0.781450  1.0  0.9076
  Zn  Zn29  1  0.543580  0.790020  0.781450  1.0  0.9107
  Zn  Zn30  1  0.543580  0.290020  0.281450  1.0  0.9107
  Zn  Zn31  1  0.043580  0.790020  0.281450  1.0  0.9107
  Zn  Zn32  1  0.043580  0.290020  0.781450  1.0  0.9107
  Zn  Zn33  1  0.875000  0.375000  0.653400  1.0  0.7983
  Zn  Zn34  1  0.875000  0.875000  0.153400  1.0  0.7983
  Zn  Zn35  1  0.375000  0.375000  0.153400  1.0  0.7983
  Zn  Zn36  1  0.375000  0.875000  0.653400  1.0  0.7983
  Zn  Zn37  1  0.875000  0.375000  0.096600  1.0  0.7986
  Zn  Zn38  1  0.875000  0.875000  0.596600  1.0  0.7986
  Zn  Zn39  1  0.375000  0.375000  0.596600  1.0  0.7986
  Zn  Zn40  1  0.375000  0.875000  0.096600  1.0  0.7986
  Zn  Zn41  1  0.125000  0.625000  0.346600  1.0  0.7986
  Zn  Zn42  1  0.125000  0.125000  0.846600  1.0  0.7986
  Zn  Zn43  1  0.625000  0.625000  0.846600  1.0  0.7986
  Zn  Zn44  1  0.625000  0.125000  0.346600  1.0  0.7986
  Zn  Zn45  1  0.125000  0.625000  0.903400  1.0  0.7983
  Zn  Zn46  1  0.125000  0.125000  0.403400  1.0  0.7983
  Zn  Zn47  1  0.625000  0.625000  0.403400  1.0  0.7983
  Zn  Zn48  1  0.625000  0.125000  0.903400  1.0  0.7983
  H  H49  1  0.324900  0.347800  0.742200  1.0  0.11
  H  H50  1  0.269300  0.382900  0.683600  1.0  0.105
  H  H51  1  0.014200  0.331500  0.713600  1.0  0.1119
  H  H52  1  0.745000  0.440800  0.644800  1.0  0.1001
  H  H53  1  0.750600  0.473200  0.612000  1.0  0.127
  H  H54  1  0.996800  0.403000  0.610200  1.0  0.1088
  H  H55  1  0.758000  0.460900  0.574000  1.0  0.1234
  H  H56  1  0.004000  0.495000  0.533500  1.0  0.1185
  H  H57  1  0.103500  0.452600  0.588600  1.0  0.1177
  H  H58  1  0.283200  0.440900  0.568800  1.0  0.113
  H  H59  1  0.458600  0.468500  0.554600  1.0  0.1034
  H  H60  1  0.184900  0.523600  0.538400  1.0  0.1028
  H  H61  1  0.838500  0.486400  0.507800  1.0  0.1256
  H  H62  1  0.654100  0.506800  0.559900  1.0  0.1027
  H  H63  1  0.651300  0.512800  0.497900  1.0  0.1005
  H  H64  1  0.548600  0.579800  0.609600  1.0  0.1119
  H  H65  1  0.324900  0.847800  0.242200  1.0  0.11
  H  H66  1  0.269300  0.882900  0.183600  1.0  0.105
  H  H67  1  0.014200  0.831500  0.213600  1.0  0.1119
  H  H68  1  0.745000  0.940800  0.144800  1.0  0.1001
  H  H69  1  0.750600  0.973200  0.112000  1.0  0.127
  H  H70  1  0.996800  0.903000  0.110200  1.0  0.1088
  H  H71  1  0.758000  0.960900  0.074000  1.0  0.1234
  H  H72  1  0.004000  0.995000  0.033500  1.0  0.1185
  H  H73  1  0.103500  0.952600  0.088600  1.0  0.1177
  H  H74  1  0.283200  0.940900  0.068800  1.0  0.113
  H  H75  1  0.458600  0.968500  0.054600  1.0  0.1034
  H  H76  1  0.184900  0.023600  0.038400  1.0  0.1028
  H  H77  1  0.838500  0.986400  0.007800  1.0  0.1256
  H  H78  1  0.654100  0.006800  0.059900  1.0  0.1027
  H  H79  1  0.651300  0.012800  0.997900  1.0  0.1005
  H  H80  1  0.548600  0.079800  0.109600  1.0  0.1119
  H  H81  1  0.824900  0.347800  0.242200  1.0  0.11
  H  H82  1  0.769300  0.382900  0.183600  1.0  0.105
  H  H83  1  0.514200  0.331500  0.213600  1.0  0.1119
  H  H84  1  0.245000  0.440800  0.144800  1.0  0.1001
  H  H85  1  0.250600  0.473200  0.112000  1.0  0.127
  H  H86  1  0.496800  0.403000  0.110200  1.0  0.1088
  H  H87  1  0.258000  0.460900  0.074000  1.0  0.1234
  H  H88  1  0.504000  0.495000  0.033500  1.0  0.1185
  H  H89  1  0.603500  0.452600  0.088600  1.0  0.1177
  H  H90  1  0.783200  0.440900  0.068800  1.0  0.113
  H  H91  1  0.958600  0.468500  0.054600  1.0  0.1034
  H  H92  1  0.684900  0.523600  0.038400  1.0  0.1028
  H  H93  1  0.338500  0.486400  0.007800  1.0  0.1256
  H  H94  1  0.154100  0.506800  0.059900  1.0  0.1027
  H  H95  1  0.151300  0.512800  0.997900  1.0  0.1005
  H  H96  1  0.048600  0.579800  0.109600  1.0  0.111
  H  H97  1  0.824900  0.847800  0.742200  1.0  0.11
  H  H98  1  0.769300  0.882900  0.683600  1.0  0.105
  H  H99  1  0.514200  0.831500  0.713600  1.0  0.1119
  H  H100  1  0.245000  0.940800  0.644800  1.0  0.1001
  H  H101  1  0.250600  0.973200  0.612000  1.0  0.127
  H  H102  1  0.496800  0.903000  0.610200  1.0  0.1088
  H  H103  1  0.258000  0.960900  0.574000  1.0  0.1234
  H  H104  1  0.504000  0.995000  0.533500  1.0  0.1185
  H  H105  1  0.603500  0.952600  0.588600  1.0  0.1177
  H  H106  1  0.783200  0.940900  0.568800  1.0  0.113
  H  H107  1  0.958600  0.968500  0.554600  1.0  0.1034
  H  H108  1  0.684900  0.023600  0.538400  1.0  0.1028
  H  H109  1  0.338500  0.986400  0.507800  1.0  0.1256
  H  H110  1  0.154100  0.006800  0.559900  1.0  0.1027
  H  H111  1  0.151300  0.012800  0.497900  1.0  0.1005
  H  H112  1  0.048600  0.079800  0.609600  1.0  0.111
  H  H113  1  0.425100  0.402200  0.742200  1.0  0.1102
  H  H114  1  0.480700  0.367100  0.683600  1.0  0.1055
  H  H115  1  0.735800  0.418500  0.713600  1.0  0.1122
  H  H116  1  0.005000  0.309200  0.644800  1.0  0.0998
  H  H117  1  0.999400  0.276800  0.612000  1.0  0.1274
  H  H118  1  0.753200  0.347000  0.610200  1.0  0.1091
  H  H119  1  0.992000  0.289100  0.574000  1.0  0.1236
  H  H120  1  0.746000  0.255000  0.533500  1.0  0.1186
  H  H121  1  0.646500  0.297400  0.588600  1.0  0.1172
  H  H122  1  0.466800  0.309100  0.568800  1.0  0.113
  H  H123  1  0.291400  0.281500  0.554600  1.0  0.1044
  H  H124  1  0.565100  0.226400  0.538400  1.0  0.1026
  H  H125  1  0.911500  0.263600  0.507800  1.0  0.1246
  H  H126  1  0.095900  0.243200  0.559900  1.0  0.1017
  H  H127  1  0.098700  0.237200  0.497900  1.0  0.1014
  H  H128  1  0.201400  0.170200  0.609600  1.0  0.1121
  H  H129  1  0.425100  0.902200  0.242200  1.0  0.1102
  H  H130  1  0.480700  0.867100  0.183600  1.0  0.1055
  H  H131  1  0.735800  0.918500  0.213600  1.0  0.1122
  H  H132  1  0.005000  0.809200  0.144800  1.0  0.0998
  H  H133  1  0.999400  0.776800  0.112000  1.0  0.1274
  H  H134  1  0.753200  0.847000  0.110200  1.0  0.1091
  H  H135  1  0.992000  0.789100  0.074000  1.0  0.1236
  H  H136  1  0.746000  0.755000  0.033500  1.0  0.1186
  H  H137  1  0.646500  0.797400  0.088600  1.0  0.1172
  H  H138  1  0.466800  0.809100  0.068800  1.0  0.113
  H  H139  1  0.291400  0.781500  0.054600  1.0  0.1044
  H  H140  1  0.565100  0.726400  0.038400  1.0  0.1026
  H  H141  1  0.911500  0.763600  0.007800  1.0  0.1246
  H  H142  1  0.095900  0.743200  0.059900  1.0  0.1017
  H  H143  1  0.098700  0.737200  0.997900  1.0  0.1014
  H  H144  1  0.201400  0.670200  0.109600  1.0  0.1121
  H  H145  1  0.925100  0.402200  0.242200  1.0  0.1102
  H  H146  1  0.980700  0.367100  0.183600  1.0  0.1055
  H  H147  1  0.235800  0.418500  0.213600  1.0  0.1122
  H  H148  1  0.505000  0.309200  0.144800  1.0  0.0998
  H  H149  1  0.499400  0.276800  0.112000  1.0  0.1274
  H  H150  1  0.253200  0.347000  0.110200  1.0  0.1091
  H  H151  1  0.492000  0.289100  0.074000  1.0  0.1236
  H  H152  1  0.246000  0.255000  0.033500  1.0  0.1186
  H  H153  1  0.146500  0.297400  0.088600  1.0  0.1172
  H  H154  1  0.966800  0.309100  0.068800  1.0  0.113
  H  H155  1  0.791400  0.281500  0.054600  1.0  0.1044
  H  H156  1  0.065100  0.226400  0.038400  1.0  0.1026
  H  H157  1  0.411500  0.263600  0.007800  1.0  0.1246
  H  H158  1  0.595900  0.243200  0.059900  1.0  0.1017
  H  H159  1  0.598700  0.237200  0.997900  1.0  0.1014
  H  H160  1  0.701400  0.170200  0.109600  1.0  0.1121
  H  H161  1  0.925100  0.902200  0.742200  1.0  0.1102
  H  H162  1  0.980700  0.867100  0.683600  1.0  0.1055
  H  H163  1  0.235800  0.918500  0.713600  1.0  0.1122
  H  H164  1  0.505000  0.809200  0.644800  1.0  0.0998
  H  H165  1  0.499400  0.776800  0.612000  1.0  0.1274
  H  H166  1  0.253200  0.847000  0.610200  1.0  0.1091
  H  H167  1  0.492000  0.789100  0.574000  1.0  0.1236
  H  H168  1  0.246000  0.755000  0.533500  1.0  0.1186
  H  H169  1  0.146500  0.797400  0.588600  1.0  0.1172
  H  H170  1  0.966800  0.809100  0.568800  1.0  0.113
  H  H171  1  0.791400  0.781500  0.554600  1.0  0.1044
  H  H172  1  0.065100  0.726400  0.538400  1.0  0.1026
  H  H173  1  0.411500  0.763600  0.507800  1.0  0.1246
  H  H174  1  0.595900  0.743200  0.559900  1.0  0.1017
  H  H175  1  0.598700  0.737200  0.497900  1.0  0.1014
  H  H176  1  0.701400  0.670200  0.609600  1.0  0.1121
  H  H177  1  0.425100  0.347800  0.007800  1.0  0.1097
  H  H178  1  0.480700  0.382900  0.066400  1.0  0.1051
  H  H179  1  0.735800  0.331500  0.036400  1.0  0.112
  H  H180  1  0.005000  0.440800  0.105200  1.0  0.0999
  H  H181  1  0.999400  0.473200  0.138000  1.0  0.1267
  H  H182  1  0.753200  0.403000  0.139800  1.0  0.1083
  H  H183  1  0.992000  0.460900  0.176000  1.0  0.1232
  H  H184  1  0.746000  0.495000  0.216500  1.0  0.1194
  H  H185  1  0.646500  0.452600  0.161400  1.0  0.1171
  H  H186  1  0.466800  0.440900  0.181200  1.0  0.1131
  H  H187  1  0.291400  0.468500  0.195400  1.0  0.1042
  H  H188  1  0.565100  0.523600  0.211600  1.0  0.1014
  H  H189  1  0.911500  0.486400  0.242200  1.0  0.1248
  H  H190  1  0.095900  0.506800  0.190100  1.0  0.1034
  H  H191  1  0.098700  0.512800  0.252100  1.0  0.1005
  H  H192  1  0.201400  0.579800  0.140400  1.0  0.113
  H  H193  1  0.425100  0.847800  0.507800  1.0  0.1097
  H  H194  1  0.480700  0.882900  0.566400  1.0  0.1051
  H  H195  1  0.735800  0.831500  0.536400  1.0  0.112
  H  H196  1  0.005000  0.940800  0.605200  1.0  0.0999
  H  H197  1  0.999400  0.973200  0.638000  1.0  0.1267
  H  H198  1  0.753200  0.903000  0.639800  1.0  0.1083
  H  H199  1  0.992000  0.960900  0.676000  1.0  0.1232
  H  H200  1  0.746000  0.995000  0.716500  1.0  0.1194
  H  H201  1  0.646500  0.952600  0.661400  1.0  0.1171
  H  H202  1  0.466800  0.940900  0.681200  1.0  0.1131
  H  H203  1  0.291400  0.968500  0.695400  1.0  0.1042
  H  H204  1  0.565100  0.023600  0.711600  1.0  0.1014
  H  H205  1  0.911500  0.986400  0.742200  1.0  0.1248
  H  H206  1  0.095900  0.006800  0.690100  1.0  0.1034
  H  H207  1  0.098700  0.012800  0.752100  1.0  0.1005
  H  H208  1  0.201400  0.079800  0.640400  1.0  0.113
  H  H209  1  0.925100  0.347800  0.507800  1.0  0.1097
  H  H210  1  0.980700  0.382900  0.566400  1.0  0.1051
  H  H211  1  0.235800  0.331500  0.536400  1.0  0.112
  H  H212  1  0.505000  0.440800  0.605200  1.0  0.0999
  H  H213  1  0.499400  0.473200  0.638000  1.0  0.1267
  H  H214  1  0.253200  0.403000  0.639800  1.0  0.1083
  H  H215  1  0.492000  0.460900  0.676000  1.0  0.1232
  H  H216  1  0.246000  0.495000  0.716500  1.0  0.1194
  H  H217  1  0.146500  0.452600  0.661400  1.0  0.1171
  H  H218  1  0.966800  0.440900  0.681200  1.0  0.1131
  H  H219  1  0.791400  0.468500  0.695400  1.0  0.1042
  H  H220  1  0.065100  0.523600  0.711600  1.0  0.1014
  H  H221  1  0.411500  0.486400  0.742200  1.0  0.1248
  H  H222  1  0.595900  0.506800  0.690100  1.0  0.1034
  H  H223  1  0.598700  0.512800  0.752100  1.0  0.1005
  H  H224  1  0.701400  0.579800  0.640400  1.0  0.113
  H  H225  1  0.925100  0.847800  0.007800  1.0  0.1097
  H  H226  1  0.980700  0.882900  0.066400  1.0  0.1051
  H  H227  1  0.235800  0.831500  0.036400  1.0  0.112
  H  H228  1  0.505000  0.940800  0.105200  1.0  0.0999
  H  H229  1  0.499400  0.973200  0.138000  1.0  0.1267
  H  H230  1  0.253200  0.903000  0.139800  1.0  0.1083
  H  H231  1  0.492000  0.960900  0.176000  1.0  0.1232
  H  H232  1  0.246000  0.995000  0.216500  1.0  0.1194
  H  H233  1  0.146500  0.952600  0.161400  1.0  0.1171
  H  H234  1  0.966800  0.940900  0.181200  1.0  0.1131
  H  H235  1  0.791400  0.968500  0.195400  1.0  0.1042
  H  H236  1  0.065100  0.023600  0.211600  1.0  0.1014
  H  H237  1  0.411500  0.986400  0.242200  1.0  0.1248
  H  H238  1  0.595900  0.006800  0.190100  1.0  0.1034
  H  H239  1  0.598700  0.012800  0.252100  1.0  0.1005
  H  H240  1  0.701400  0.079800  0.140400  1.0  0.113
  H  H241  1  0.324900  0.402200  0.007800  1.0  0.1101
  H  H242  1  0.269300  0.367100  0.066400  1.0  0.1057
  H  H243  1  0.014200  0.418500  0.036400  1.0  0.1116
  H  H244  1  0.745000  0.309200  0.105200  1.0  0.0997
  H  H245  1  0.750600  0.276800  0.138000  1.0  0.1266
  H  H246  1  0.996800  0.347000  0.139800  1.0  0.1085
  H  H247  1  0.758000  0.289100  0.176000  1.0  0.1234
  H  H248  1  0.004000  0.255000  0.216500  1.0  0.1193
  H  H249  1  0.103500  0.297400  0.161400  1.0  0.1178
  H  H250  1  0.283200  0.309100  0.181200  1.0  0.1135
  H  H251  1  0.458600  0.281500  0.195400  1.0  0.1031
  H  H252  1  0.184900  0.226400  0.211600  1.0  0.1027
  H  H253  1  0.838500  0.263600  0.242200  1.0  0.1254
  H  H254  1  0.654100  0.243200  0.190100  1.0  0.103
  H  H255  1  0.651300  0.237200  0.252100  1.0  0.1004
  H  H256  1  0.548600  0.170200  0.140400  1.0  0.1127
  H  H257  1  0.324900  0.902200  0.507800  1.0  0.1101
  H  H258  1  0.269300  0.867100  0.566400  1.0  0.1057
  H  H259  1  0.014200  0.918500  0.536400  1.0  0.1116
  H  H260  1  0.745000  0.809200  0.605200  1.0  0.0997
  H  H261  1  0.750600  0.776800  0.638000  1.0  0.1266
  H  H262  1  0.996800  0.847000  0.639800  1.0  0.1085
  H  H263  1  0.758000  0.789100  0.676000  1.0  0.1234
  H  H264  1  0.004000  0.755000  0.716500  1.0  0.1193
  H  H265  1  0.103500  0.797400  0.661400  1.0  0.1178
  H  H266  1  0.283200  0.809100  0.681200  1.0  0.1135
  H  H267  1  0.458600  0.781500  0.695400  1.0  0.1031
  H  H268  1  0.184900  0.726400  0.711600  1.0  0.1027
  H  H269  1  0.838500  0.763600  0.742200  1.0  0.1254
  H  H270  1  0.654100  0.743200  0.690100  1.0  0.103
  H  H271  1  0.651300  0.737200  0.752100  1.0  0.1004
  H  H272  1  0.548600  0.670200  0.640400  1.0  0.1127
  H  H273  1  0.824900  0.402200  0.507800  1.0  0.1101
  H  H274  1  0.769300  0.367100  0.566400  1.0  0.1057
  H  H275  1  0.514200  0.418500  0.536400  1.0  0.1116
  H  H276  1  0.245000  0.309200  0.605200  1.0  0.0997
  H  H277  1  0.250600  0.276800  0.638000  1.0  0.1266
  H  H278  1  0.496800  0.347000  0.639800  1.0  0.1085
  H  H279  1  0.258000  0.289100  0.676000  1.0  0.1234
  H  H280  1  0.504000  0.255000  0.716500  1.0  0.1193
  H  H281  1  0.603500  0.297400  0.661400  1.0  0.1178
  H  H282  1  0.783200  0.309100  0.681200  1.0  0.1135
  H  H283  1  0.958600  0.281500  0.695400  1.0  0.1031
  H  H284  1  0.684900  0.226400  0.711600  1.0  0.1027
  H  H285  1  0.338500  0.263600  0.742200  1.0  0.1254
  H  H286  1  0.154100  0.243200  0.690100  1.0  0.103
  H  H287  1  0.151300  0.237200  0.752100  1.0  0.1004
  H  H288  1  0.048600  0.170200  0.640400  1.0  0.112
  H  H289  1  0.824900  0.902200  0.007800  1.0  0.1101
  H  H290  1  0.769300  0.867100  0.066400  1.0  0.1057
  H  H291  1  0.514200  0.918500  0.036400  1.0  0.1116
  H  H292  1  0.245000  0.809200  0.105200  1.0  0.0997
  H  H293  1  0.250600  0.776800  0.138000  1.0  0.1266
  H  H294  1  0.496800  0.847000  0.139800  1.0  0.1085
  H  H295  1  0.258000  0.789100  0.176000  1.0  0.1234
  H  H296  1  0.504000  0.755000  0.216500  1.0  0.1193
  H  H297  1  0.603500  0.797400  0.161400  1.0  0.1178
  H  H298  1  0.783200  0.809100  0.181200  1.0  0.1135
  H  H299  1  0.958600  0.781500  0.195400  1.0  0.1031
  H  H300  1  0.684900  0.726400  0.211600  1.0  0.1027
  H  H301  1  0.338500  0.763600  0.242200  1.0  0.1254
  H  H302  1  0.154100  0.743200  0.190100  1.0  0.103
  H  H303  1  0.151300  0.737200  0.252100  1.0  0.1004
  H  H304  1  0.048600  0.670200  0.140400  1.0  0.112
  H  H305  1  0.675100  0.652200  0.257800  1.0  0.1097
  H  H306  1  0.730700  0.617100  0.316400  1.0  0.1055
  H  H307  1  0.985800  0.668500  0.286400  1.0  0.1118
  H  H308  1  0.255000  0.559200  0.355200  1.0  0.0997
  H  H309  1  0.249400  0.526800  0.388000  1.0  0.1272
  H  H310  1  0.003200  0.597000  0.389800  1.0  0.1087
  H  H311  1  0.242000  0.539100  0.426000  1.0  0.1234
  H  H312  1  0.996000  0.505000  0.466500  1.0  0.1193
  H  H313  1  0.896500  0.547400  0.411400  1.0  0.1171
  H  H314  1  0.716800  0.559100  0.431200  1.0  0.1135
  H  H315  1  0.541400  0.531500  0.445400  1.0  0.1043
  H  H316  1  0.815100  0.476400  0.461600  1.0  0.1027
  H  H317  1  0.161500  0.513600  0.492200  1.0  0.1253
  H  H318  1  0.345900  0.493200  0.440100  1.0  0.1029
  H  H319  1  0.348700  0.487200  0.502100  1.0  0.1011
  H  H320  1  0.451400  0.420200  0.390400  1.0  0.1131
  H  H321  1  0.675100  0.152200  0.757800  1.0  0.1097
  H  H322  1  0.730700  0.117100  0.816400  1.0  0.1055
  H  H323  1  0.985800  0.168500  0.786400  1.0  0.1118
  H  H324  1  0.255000  0.059200  0.855200  1.0  0.0997
  H  H325  1  0.249400  0.026800  0.888000  1.0  0.1272
  H  H326  1  0.003200  0.097000  0.889800  1.0  0.1087
  H  H327  1  0.242000  0.039100  0.926000  1.0  0.1234
  H  H328  1  0.996000  0.005000  0.966500  1.0  0.1193
  H  H329  1  0.896500  0.047400  0.911400  1.0  0.1171
  H  H330  1  0.716800  0.059100  0.931200  1.0  0.1135
  H  H331  1  0.541400  0.031500  0.945400  1.0  0.1043
  H  H332  1  0.815100  0.976400  0.961600  1.0  0.1027
  H  H333  1  0.161500  0.013600  0.992200  1.0  0.1253
  H  H334  1  0.345900  0.993200  0.940100  1.0  0.1029
  H  H335  1  0.348700  0.987200  0.002100  1.0  0.1011
  H  H336  1  0.451400  0.920200  0.890400  1.0  0.1131
  H  H337  1  0.175100  0.652200  0.757800  1.0  0.1097
  H  H338  1  0.230700  0.617100  0.816400  1.0  0.1055
  H  H339  1  0.485800  0.668500  0.786400  1.0  0.1118
  H  H340  1  0.755000  0.559200  0.855200  1.0  0.0997
  H  H341  1  0.749400  0.526800  0.888000  1.0  0.1272
  H  H342  1  0.503200  0.597000  0.889800  1.0  0.1087
  H  H343  1  0.742000  0.539100  0.926000  1.0  0.1234
  H  H344  1  0.496000  0.505000  0.966500  1.0  0.1193
  H  H345  1  0.396500  0.547400  0.911400  1.0  0.1171
  H  H346  1  0.216800  0.559100  0.931200  1.0  0.1135
  H  H347  1  0.041400  0.531500  0.945400  1.0  0.1043
  H  H348  1  0.315100  0.476400  0.961600  1.0  0.1027
  H  H349  1  0.661500  0.513600  0.992200  1.0  0.1253
  H  H350  1  0.845900  0.493200  0.940100  1.0  0.1029
  H  H351  1  0.848700  0.487200  0.002100  1.0  0.1011
  H  H352  1  0.951400  0.420200  0.890400  1.0  0.112
  H  H353  1  0.175100  0.152200  0.257800  1.0  0.1097
  H  H354  1  0.230700  0.117100  0.316400  1.0  0.1055
  H  H355  1  0.485800  0.168500  0.286400  1.0  0.1118
  H  H356  1  0.755000  0.059200  0.355200  1.0  0.0997
  H  H357  1  0.749400  0.026800  0.388000  1.0  0.1272
  H  H358  1  0.503200  0.097000  0.389800  1.0  0.1087
  H  H359  1  0.742000  0.039100  0.426000  1.0  0.1234
  H  H360  1  0.496000  0.005000  0.466500  1.0  0.1193
  H  H361  1  0.396500  0.047400  0.411400  1.0  0.1171
  H  H362  1  0.216800  0.059100  0.431200  1.0  0.1135
  H  H363  1  0.041400  0.031500  0.445400  1.0  0.1043
  H  H364  1  0.315100  0.976400  0.461600  1.0  0.1027
  H  H365  1  0.661500  0.013600  0.492200  1.0  0.1253
  H  H366  1  0.845900  0.993200  0.440100  1.0  0.1029
  H  H367  1  0.848700  0.987200  0.502100  1.0  0.1011
  H  H368  1  0.951400  0.920200  0.390400  1.0  0.112
  H  H369  1  0.574900  0.597800  0.257800  1.0  0.1101
  H  H370  1  0.519300  0.632900  0.316400  1.0  0.1052
  H  H371  1  0.264200  0.581500  0.286400  1.0  0.1118
  H  H372  1  0.995000  0.690800  0.355200  1.0  0.1002
  H  H373  1  0.000600  0.723200  0.388000  1.0  0.1267
  H  H374  1  0.246800  0.653000  0.389800  1.0  0.1084
  H  H375  1  0.008000  0.710900  0.426000  1.0  0.1233
  H  H376  1  0.254000  0.745000  0.466500  1.0  0.1194
  H  H377  1  0.353500  0.702600  0.411400  1.0  0.1177
  H  H378  1  0.533200  0.690900  0.431200  1.0  0.1132
  H  H379  1  0.708600  0.718500  0.445400  1.0  0.1031
  H  H380  1  0.434900  0.773600  0.461600  1.0  0.1025
  H  H381  1  0.088500  0.736400  0.492200  1.0  0.1257
  H  H382  1  0.904100  0.756800  0.440100  1.0  0.1038
  H  H383  1  0.901300  0.762800  0.502100  1.0  0.1001
  H  H384  1  0.798600  0.829800  0.390400  1.0  0.1124
  H  H385  1  0.574900  0.097800  0.757800  1.0  0.1101
  H  H386  1  0.519300  0.132900  0.816400  1.0  0.1052
  H  H387  1  0.264200  0.081500  0.786400  1.0  0.1118
  H  H388  1  0.995000  0.190800  0.855200  1.0  0.1002
  H  H389  1  0.000600  0.223200  0.888000  1.0  0.1267
  H  H390  1  0.246800  0.153000  0.889800  1.0  0.1084
  H  H391  1  0.008000  0.210900  0.926000  1.0  0.1233
  H  H392  1  0.254000  0.245000  0.966500  1.0  0.1194
  H  H393  1  0.353500  0.202600  0.911400  1.0  0.1177
  H  H394  1  0.533200  0.190900  0.931200  1.0  0.1132
  H  H395  1  0.708600  0.218500  0.945400  1.0  0.1031
  H  H396  1  0.434900  0.273600  0.961600  1.0  0.1025
  H  H397  1  0.088500  0.236400  0.992200  1.0  0.1257
  H  H398  1  0.904100  0.256800  0.940100  1.0  0.1038
  H  H399  1  0.901300  0.262800  0.002100  1.0  0.1001
  H  H400  1  0.798600  0.329800  0.890400  1.0  0.1124
  H  H401  1  0.074900  0.597800  0.757800  1.0  0.1101
  H  H402  1  0.019300  0.632900  0.816400  1.0  0.1052
  H  H403  1  0.764200  0.581500  0.786400  1.0  0.1118
  H  H404  1  0.495000  0.690800  0.855200  1.0  0.1002
  H  H405  1  0.500600  0.723200  0.888000  1.0  0.1267
  H  H406  1  0.746800  0.653000  0.889800  1.0  0.1084
  H  H407  1  0.508000  0.710900  0.926000  1.0  0.1233
  H  H408  1  0.754000  0.745000  0.966500  1.0  0.1194
  H  H409  1  0.853500  0.702600  0.911400  1.0  0.1177
  H  H410  1  0.033200  0.690900  0.931200  1.0  0.1132
  H  H411  1  0.208600  0.718500  0.945400  1.0  0.1031
  H  H412  1  0.934900  0.773600  0.961600  1.0  0.1025
  H  H413  1  0.588500  0.736400  0.992200  1.0  0.1257
  H  H414  1  0.404100  0.756800  0.940100  1.0  0.1038
  H  H415  1  0.401300  0.762800  0.002100  1.0  0.1001
  H  H416  1  0.298600  0.829800  0.890400  1.0  0.1124
  H  H417  1  0.074900  0.097800  0.257800  1.0  0.1101
  H  H418  1  0.019300  0.132900  0.316400  1.0  0.1052
  H  H419  1  0.764200  0.081500  0.286400  1.0  0.1118
  H  H420  1  0.495000  0.190800  0.355200  1.0  0.1002
  H  H421  1  0.500600  0.223200  0.388000  1.0  0.1267
  H  H422  1  0.746800  0.153000  0.389800  1.0  0.1084
  H  H423  1  0.508000  0.210900  0.426000  1.0  0.1233
  H  H424  1  0.754000  0.245000  0.466500  1.0  0.1194
  H  H425  1  0.853500  0.202600  0.411400  1.0  0.1177
  H  H426  1  0.033200  0.190900  0.431200  1.0  0.1132
  H  H427  1  0.208600  0.218500  0.445400  1.0  0.1031
  H  H428  1  0.934900  0.273600  0.461600  1.0  0.1025
  H  H429  1  0.588500  0.236400  0.492200  1.0  0.1257
  H  H430  1  0.404100  0.256800  0.440100  1.0  0.1038
  H  H431  1  0.401300  0.262800  0.502100  1.0  0.1001
  H  H432  1  0.298600  0.329800  0.390400  1.0  0.1124
  H  H433  1  0.574900  0.652200  0.992200  1.0  0.1102
  H  H434  1  0.519300  0.617100  0.933600  1.0  0.105
  H  H435  1  0.264200  0.668500  0.963600  1.0  0.112
  H  H436  1  0.995000  0.559200  0.894800  1.0  0.1
  H  H437  1  0.000600  0.526800  0.862000  1.0  0.1269
  H  H438  1  0.246800  0.597000  0.860200  1.0  0.1087
  H  H439  1  0.008000  0.539100  0.824000  1.0  0.1237
  H  H440  1  0.254000  0.505000  0.783500  1.0  0.1185
  H  H441  1  0.353500  0.547400  0.838600  1.0  0.1178
  H  H442  1  0.533200  0.559100  0.818800  1.0  0.113
  H  H443  1  0.708600  0.531500  0.804600  1.0  0.1034
  H  H444  1  0.434900  0.476400  0.788400  1.0  0.1027
  H  H445  1  0.088500  0.513600  0.757800  1.0  0.1259
  H  H446  1  0.904100  0.493200  0.809900  1.0  0.102
  H  H447  1  0.901300  0.487200  0.747900  1.0  0.1006
  H  H448  1  0.798600  0.420200  0.859600  1.0  0.112
  H  H449  1  0.574900  0.152200  0.492200  1.0  0.1102
  H  H450  1  0.519300  0.117100  0.433600  1.0  0.105
  H  H451  1  0.264200  0.168500  0.463600  1.0  0.112
  H  H452  1  0.995000  0.059200  0.394800  1.0  0.1
  H  H453  1  0.000600  0.026800  0.362000  1.0  0.1269
  H  H454  1  0.246800  0.097000  0.360200  1.0  0.1087
  H  H455  1  0.008000  0.039100  0.324000  1.0  0.1237
  H  H456  1  0.254000  0.005000  0.283500  1.0  0.1185
  H  H457  1  0.353500  0.047400  0.338600  1.0  0.1178
  H  H458  1  0.533200  0.059100  0.318800  1.0  0.113
  H  H459  1  0.708600  0.031500  0.304600  1.0  0.1034
  H  H460  1  0.434900  0.976400  0.288400  1.0  0.1027
  H  H461  1  0.088500  0.013600  0.257800  1.0  0.1259
  H  H462  1  0.904100  0.993200  0.309900  1.0  0.102
  H  H463  1  0.901300  0.987200  0.247900  1.0  0.1006
  H  H464  1  0.798600  0.920200  0.359600  1.0  0.112
  H  H465  1  0.074900  0.652200  0.492200  1.0  0.1102
  H  H466  1  0.019300  0.617100  0.433600  1.0  0.105
  H  H467  1  0.764200  0.668500  0.463600  1.0  0.112
  H  H468  1  0.495000  0.559200  0.394800  1.0  0.1
  H  H469  1  0.500600  0.526800  0.362000  1.0  0.1269
  H  H470  1  0.746800  0.597000  0.360200  1.0  0.1087
  H  H471  1  0.508000  0.539100  0.324000  1.0  0.1237
  H  H472  1  0.754000  0.505000  0.283500  1.0  0.1185
  H  H473  1  0.853500  0.547400  0.338600  1.0  0.1178
  H  H474  1  0.033200  0.559100  0.318800  1.0  0.113
  H  H475  1  0.208600  0.531500  0.304600  1.0  0.1034
  H  H476  1  0.934900  0.476400  0.288400  1.0  0.1027
  H  H477  1  0.588500  0.513600  0.257800  1.0  0.1259
  H  H478  1  0.404100  0.493200  0.309900  1.0  0.102
  H  H479  1  0.401300  0.487200  0.247900  1.0  0.1006
  H  H480  1  0.298600  0.420200  0.359600  1.0  0.112
  H  H481  1  0.074900  0.152200  0.992200  1.0  0.1102
  H  H482  1  0.019300  0.117100  0.933600  1.0  0.105
  H  H483  1  0.764200  0.168500  0.963600  1.0  0.112
  H  H484  1  0.495000  0.059200  0.894800  1.0  0.1
  H  H485  1  0.500600  0.026800  0.862000  1.0  0.1269
  H  H486  1  0.746800  0.097000  0.860200  1.0  0.1087
  H  H487  1  0.508000  0.039100  0.824000  1.0  0.1237
  H  H488  1  0.754000  0.005000  0.783500  1.0  0.1185
  H  H489  1  0.853500  0.047400  0.838600  1.0  0.1178
  H  H490  1  0.033200  0.059100  0.818800  1.0  0.113
  H  H491  1  0.208600  0.031500  0.804600  1.0  0.1034
  H  H492  1  0.934900  0.976400  0.788400  1.0  0.1027
  H  H493  1  0.588500  0.013600  0.757800  1.0  0.1259
  H  H494  1  0.404100  0.993200  0.809900  1.0  0.102
  H  H495  1  0.401300  0.987200  0.747900  1.0  0.1006
  H  H496  1  0.298600  0.920200  0.859600  1.0  0.112
  H  H497  1  0.675100  0.597800  0.992200  1.0  0.11
  H  H498  1  0.730700  0.632900  0.933600  1.0  0.1057
  H  H499  1  0.985800  0.581500  0.963600  1.0  0.1122
  H  H500  1  0.255000  0.690800  0.894800  1.0  0.0998
  H  H501  1  0.249400  0.723200  0.862000  1.0  0.1268
  H  H502  1  0.003200  0.653000  0.860200  1.0  0.1089
  H  H503  1  0.242000  0.710900  0.824000  1.0  0.1232
  H  H504  1  0.996000  0.745000  0.783500  1.0  0.1185
  H  H505  1  0.896500  0.702600  0.838600  1.0  0.1172
  H  H506  1  0.716800  0.690900  0.818800  1.0  0.113
  H  H507  1  0.541400  0.718500  0.804600  1.0  0.1043
  H  H508  1  0.815100  0.773600  0.788400  1.0  0.1018
  H  H509  1  0.161500  0.736400  0.757800  1.0  0.1252
  H  H510  1  0.345900  0.756800  0.809900  1.0  0.1023
  H  H511  1  0.348700  0.762800  0.747900  1.0  0.1009
  H  H512  1  0.451400  0.829800  0.859600  1.0  0.1121
  H  H513  1  0.675100  0.097800  0.492200  1.0  0.11
  H  H514  1  0.730700  0.132900  0.433600  1.0  0.1057
  H  H515  1  0.985800  0.081500  0.463600  1.0  0.1122
  H  H516  1  0.255000  0.190800  0.394800  1.0  0.0998
  H  H517  1  0.249400  0.223200  0.362000  1.0  0.1268
  H  H518  1  0.003200  0.153000  0.360200  1.0  0.1089
  H  H519  1  0.242000  0.210900  0.324000  1.0  0.1232
  H  H520  1  0.996000  0.245000  0.283500  1.0  0.1185
  H  H521  1  0.896500  0.202600  0.338600  1.0  0.1172
  H  H522  1  0.716800  0.190900  0.318800  1.0  0.113
  H  H523  1  0.541400  0.218500  0.304600  1.0  0.1043
  H  H524  1  0.815100  0.273600  0.288400  1.0  0.1018
  H  H525  1  0.161500  0.236400  0.257800  1.0  0.1252
  H  H526  1  0.345900  0.256800  0.309900  1.0  0.1023
  H  H527  1  0.348700  0.262800  0.247900  1.0  0.1009
  H  H528  1  0.451400  0.329800  0.359600  1.0  0.1121
  H  H529  1  0.175100  0.597800  0.492200  1.0  0.11
  H  H530  1  0.230700  0.632900  0.433600  1.0  0.1057
  H  H531  1  0.485800  0.581500  0.463600  1.0  0.1122
  H  H532  1  0.755000  0.690800  0.394800  1.0  0.0998
  H  H533  1  0.749400  0.723200  0.362000  1.0  0.1268
  H  H534  1  0.503200  0.653000  0.360200  1.0  0.1089
  H  H535  1  0.742000  0.710900  0.324000  1.0  0.1232
  H  H536  1  0.496000  0.745000  0.283500  1.0  0.1185
  H  H537  1  0.396500  0.702600  0.338600  1.0  0.1172
  H  H538  1  0.216800  0.690900  0.318800  1.0  0.113
  H  H539  1  0.041400  0.718500  0.304600  1.0  0.1043
  H  H540  1  0.315100  0.773600  0.288400  1.0  0.1018
  H  H541  1  0.661500  0.736400  0.257800  1.0  0.1252
  H  H542  1  0.845900  0.756800  0.309900  1.0  0.1023
  H  H543  1  0.848700  0.762800  0.247900  1.0  0.1009
  H  H544  1  0.951400  0.829800  0.359600  1.0  0.1108
  H  H545  1  0.175100  0.097800  0.992200  1.0  0.11
  H  H546  1  0.230700  0.132900  0.933600  1.0  0.1057
  H  H547  1  0.485800  0.081500  0.963600  1.0  0.1122
  H  H548  1  0.755000  0.190800  0.894800  1.0  0.0998
  H  H549  1  0.749400  0.223200  0.862000  1.0  0.1268
  H  H550  1  0.503200  0.153000  0.860200  1.0  0.1089
  H  H551  1  0.742000  0.210900  0.824000  1.0  0.1232
  H  H552  1  0.496000  0.245000  0.783500  1.0  0.1185
  H  H553  1  0.396500  0.202600  0.838600  1.0  0.1172
  H  H554  1  0.216800  0.190900  0.818800  1.0  0.113
  H  H555  1  0.041400  0.218500  0.804600  1.0  0.1043
  H  H556  1  0.315100  0.273600  0.788400  1.0  0.1018
  H  H557  1  0.661500  0.236400  0.757800  1.0  0.1252
  H  H558  1  0.845900  0.256800  0.809900  1.0  0.1023
  H  H559  1  0.848700  0.262800  0.747900  1.0  0.1009
  H  H560  1  0.951400  0.329800  0.859600  1.0  0.1108
  C  C561  1  0.125800  0.318560  0.750440  1.0  0.6787
  C  C562  1  0.164700  0.336700  0.730620  1.0  -0.1375
  C  C563  1  0.275400  0.350210  0.730340  1.0  -0.0634
  C  C564  1  0.315700  0.367540  0.712770  1.0  0.0423
  C  C565  1  0.242700  0.371230  0.695570  1.0  -0.0671
  C  C566  1  0.129900  0.357780  0.695970  1.0  -0.1255
  C  C567  1  0.090800  0.340590  0.713410  1.0  -0.0329
  C  C568  1  0.049600  0.363400  0.677750  1.0  0.6306
  C  C569  1  0.797200  0.437100  0.633480  1.0  0.0007
  C  C570  1  0.800800  0.455400  0.615680  1.0  -0.1201
  C  C571  1  0.934700  0.416780  0.614860  1.0  0.1734
  C  C572  1  0.926000  0.455080  0.584200  1.0  0.1842
  C  C573  1  0.837900  0.464700  0.570630  1.0  -0.2447
  C  C574  1  0.869200  0.480080  0.552030  1.0  0.1845
  C  C575  1  0.984100  0.484810  0.546450  1.0  -0.2153
  C  C576  1  0.069900  0.474310  0.560180  1.0  0.1397
  C  C577  1  0.043500  0.459480  0.579290  1.0  -0.1967
  C  C578  1  0.285100  0.460820  0.560980  1.0  -0.1093
  C  C579  1  0.380400  0.476190  0.553200  1.0  -0.0035
  C  C580  1  0.231700  0.506540  0.544210  1.0  0.1092
  C  C581  1  0.778800  0.493740  0.517070  1.0  -0.1116
  C  C582  1  0.676500  0.505140  0.545590  1.0  0.1212
  C  C583  1  0.676100  0.508240  0.511810  1.0  0.0328
  C  C584  1  0.523100  0.570750  0.568390  1.0  0.7239
  C  C585  1  0.576200  0.598610  0.580680  1.0  -0.1236
  C  C586  1  0.578700  0.598350  0.602270  1.0  -0.0421
  C  C587  1  0.125800  0.818560  0.250440  1.0  0.6787
  C  C588  1  0.164700  0.836700  0.230620  1.0  -0.1375
  C  C589  1  0.275400  0.850210  0.230340  1.0  -0.0634
  C  C590  1  0.315700  0.867540  0.212770  1.0  0.0423
  C  C591  1  0.242700  0.871230  0.195570  1.0  -0.0671
  C  C592  1  0.129900  0.857780  0.195970  1.0  -0.1255
  C  C593  1  0.090800  0.840590  0.213410  1.0  -0.0329
  C  C594  1  0.049600  0.863400  0.177750  1.0  0.6306
  C  C595  1  0.797200  0.937100  0.133480  1.0  0.0007
  C  C596  1  0.800800  0.955400  0.115680  1.0  -0.1201
  C  C597  1  0.934700  0.916780  0.114860  1.0  0.1734
  C  C598  1  0.926000  0.955080  0.084200  1.0  0.1842
  C  C599  1  0.837900  0.964700  0.070630  1.0  -0.2447
  C  C600  1  0.869200  0.980080  0.052030  1.0  0.1845
  C  C601  1  0.984100  0.984810  0.046450  1.0  -0.2153
  C  C602  1  0.069900  0.974310  0.060180  1.0  0.1397
  C  C603  1  0.043500  0.959480  0.079290  1.0  -0.1967
  C  C604  1  0.285100  0.960820  0.060980  1.0  -0.1093
  C  C605  1  0.380400  0.976190  0.053200  1.0  -0.0035
  C  C606  1  0.231700  0.006540  0.044210  1.0  0.1092
  C  C607  1  0.778800  0.993740  0.017070  1.0  -0.1116
  C  C608  1  0.676500  0.005140  0.045590  1.0  0.1212
  C  C609  1  0.676100  0.008240  0.011810  1.0  0.0328
  C  C610  1  0.523100  0.070750  0.068390  1.0  0.7239
  C  C611  1  0.576200  0.098610  0.080680  1.0  -0.1236
  C  C612  1  0.578700  0.098350  0.102270  1.0  -0.0421
  C  C613  1  0.625800  0.318560  0.250440  1.0  0.6787
  C  C614  1  0.664700  0.336700  0.230620  1.0  -0.1375
  C  C615  1  0.775400  0.350210  0.230340  1.0  -0.0634
  C  C616  1  0.815700  0.367540  0.212770  1.0  0.0423
  C  C617  1  0.742700  0.371230  0.195570  1.0  -0.0671
  C  C618  1  0.629900  0.357780  0.195970  1.0  -0.1255
  C  C619  1  0.590800  0.340590  0.213410  1.0  -0.0329
  C  C620  1  0.549600  0.363400  0.177750  1.0  0.6306
  C  C621  1  0.297200  0.437100  0.133480  1.0  0.0007
  C  C622  1  0.300800  0.455400  0.115680  1.0  -0.1201
  C  C623  1  0.434700  0.416780  0.114860  1.0  0.1734
  C  C624  1  0.426000  0.455080  0.084200  1.0  0.1842
  C  C625  1  0.337900  0.464700  0.070630  1.0  -0.2447
  C  C626  1  0.369200  0.480080  0.052030  1.0  0.1845
  C  C627  1  0.484100  0.484810  0.046450  1.0  -0.2153
  C  C628  1  0.569900  0.474310  0.060180  1.0  0.1397
  C  C629  1  0.543500  0.459480  0.079290  1.0  -0.1967
  C  C630  1  0.785100  0.460820  0.060980  1.0  -0.1093
  C  C631  1  0.880400  0.476190  0.053200  1.0  -0.0035
  C  C632  1  0.731700  0.506540  0.044210  1.0  0.1092
  C  C633  1  0.278800  0.493740  0.017070  1.0  -0.1116
  C  C634  1  0.176500  0.505140  0.045590  1.0  0.1212
  C  C635  1  0.176100  0.508240  0.011810  1.0  0.0328
  C  C636  1  0.023100  0.570750  0.068390  1.0  0.7204
  C  C637  1  0.076200  0.598610  0.080680  1.0  -0.1261
  C  C638  1  0.078700  0.598350  0.102270  1.0  -0.0421
  C  C639  1  0.625800  0.818560  0.750440  1.0  0.6787
  C  C640  1  0.664700  0.836700  0.730620  1.0  -0.1375
  C  C641  1  0.775400  0.850210  0.730340  1.0  -0.0634
  C  C642  1  0.815700  0.867540  0.712770  1.0  0.0423
  C  C643  1  0.742700  0.871230  0.695570  1.0  -0.0671
  C  C644  1  0.629900  0.857780  0.695970  1.0  -0.1255
  C  C645  1  0.590800  0.840590  0.713410  1.0  -0.0329
  C  C646  1  0.549600  0.863400  0.677750  1.0  0.6306
  C  C647  1  0.297200  0.937100  0.633480  1.0  0.0007
  C  C648  1  0.300800  0.955400  0.615680  1.0  -0.1201
  C  C649  1  0.434700  0.916780  0.614860  1.0  0.1734
  C  C650  1  0.426000  0.955080  0.584200  1.0  0.1842
  C  C651  1  0.337900  0.964700  0.570630  1.0  -0.2447
  C  C652  1  0.369200  0.980080  0.552030  1.0  0.1845
  C  C653  1  0.484100  0.984810  0.546450  1.0  -0.2153
  C  C654  1  0.569900  0.974310  0.560180  1.0  0.1397
  C  C655  1  0.543500  0.959480  0.579290  1.0  -0.1967
  C  C656  1  0.785100  0.960820  0.560980  1.0  -0.1093
  C  C657  1  0.880400  0.976190  0.553200  1.0  -0.0035
  C  C658  1  0.731700  0.006540  0.544210  1.0  0.1092
  C  C659  1  0.278800  0.993740  0.517070  1.0  -0.1116
  C  C660  1  0.176500  0.005140  0.545590  1.0  0.1212
  C  C661  1  0.176100  0.008240  0.511810  1.0  0.0328
  C  C662  1  0.023100  0.070750  0.568390  1.0  0.7204
  C  C663  1  0.076200  0.098610  0.580680  1.0  -0.1261
  C  C664  1  0.078700  0.098350  0.602270  1.0  -0.0421
  C  C665  1  0.624200  0.431440  0.750440  1.0  0.6782
  C  C666  1  0.585300  0.413300  0.730620  1.0  -0.1398
  C  C667  1  0.474600  0.399790  0.730340  1.0  -0.0642
  C  C668  1  0.434300  0.382460  0.712770  1.0  0.0424
  C  C669  1  0.507300  0.378770  0.695570  1.0  -0.0679
  C  C670  1  0.620100  0.392220  0.695970  1.0  -0.125
  C  C671  1  0.659200  0.409410  0.713410  1.0  -0.0312
  C  C672  1  0.700400  0.386600  0.677750  1.0  0.6305
  C  C673  1  0.952800  0.312900  0.633480  1.0  0.0013
  C  C674  1  0.949200  0.294600  0.615680  1.0  -0.1198
  C  C675  1  0.815300  0.333220  0.614860  1.0  0.1738
  C  C676  1  0.824000  0.294920  0.584200  1.0  0.1837
  C  C677  1  0.912100  0.285300  0.570630  1.0  -0.2426
  C  C678  1  0.880800  0.269920  0.552030  1.0  0.1842
  C  C679  1  0.765900  0.265190  0.546450  1.0  -0.218
  C  C680  1  0.680100  0.275690  0.560180  1.0  0.1395
  C  C681  1  0.706500  0.290520  0.579290  1.0  -0.1973
  C  C682  1  0.464900  0.289180  0.560980  1.0  -0.1097
  C  C683  1  0.369600  0.273810  0.553200  1.0  -0.0036
  C  C684  1  0.518300  0.243460  0.544210  1.0  0.11
  C  C685  1  0.971200  0.256260  0.517070  1.0  -0.1128
  C  C686  1  0.073500  0.244860  0.545590  1.0  0.1223
  C  C687  1  0.073900  0.241760  0.511810  1.0  0.0333
  C  C688  1  0.226900  0.179250  0.568390  1.0  0.7233
  C  C689  1  0.173800  0.151390  0.580680  1.0  -0.124
  C  C690  1  0.171300  0.151650  0.602270  1.0  -0.0404
  C  C691  1  0.624200  0.931440  0.250440  1.0  0.6782
  C  C692  1  0.585300  0.913300  0.230620  1.0  -0.1398
  C  C693  1  0.474600  0.899790  0.230340  1.0  -0.0642
  C  C694  1  0.434300  0.882460  0.212770  1.0  0.0424
  C  C695  1  0.507300  0.878770  0.195570  1.0  -0.0679
  C  C696  1  0.620100  0.892220  0.195970  1.0  -0.125
  C  C697  1  0.659200  0.909410  0.213410  1.0  -0.0312
  C  C698  1  0.700400  0.886600  0.177750  1.0  0.6305
  C  C699  1  0.952800  0.812900  0.133480  1.0  0.0013
  C  C700  1  0.949200  0.794600  0.115680  1.0  -0.1198
  C  C701  1  0.815300  0.833220  0.114860  1.0  0.1738
  C  C702  1  0.824000  0.794920  0.084200  1.0  0.1837
  C  C703  1  0.912100  0.785300  0.070630  1.0  -0.2426
  C  C704  1  0.880800  0.769920  0.052030  1.0  0.1842
  C  C705  1  0.765900  0.765190  0.046450  1.0  -0.218
  C  C706  1  0.680100  0.775690  0.060180  1.0  0.1395
  C  C707  1  0.706500  0.790520  0.079290  1.0  -0.1973
  C  C708  1  0.464900  0.789180  0.060980  1.0  -0.1097
  C  C709  1  0.369600  0.773810  0.053200  1.0  -0.0036
  C  C710  1  0.518300  0.743460  0.044210  1.0  0.11
  C  C711  1  0.971200  0.756260  0.017070  1.0  -0.1128
  C  C712  1  0.073500  0.744860  0.045590  1.0  0.1223
  C  C713  1  0.073900  0.741760  0.011810  1.0  0.0333
  C  C714  1  0.226900  0.679250  0.068390  1.0  0.7233
  C  C715  1  0.173800  0.651390  0.080680  1.0  -0.124
  C  C716  1  0.171300  0.651650  0.102270  1.0  -0.0404
  C  C717  1  0.124200  0.431440  0.250440  1.0  0.6782
  C  C718  1  0.085300  0.413300  0.230620  1.0  -0.1398
  C  C719  1  0.974600  0.399790  0.230340  1.0  -0.0642
  C  C720  1  0.934300  0.382460  0.212770  1.0  0.0424
  C  C721  1  0.007300  0.378770  0.195570  1.0  -0.0679
  C  C722  1  0.120100  0.392220  0.195970  1.0  -0.125
  C  C723  1  0.159200  0.409410  0.213410  1.0  -0.0312
  C  C724  1  0.200400  0.386600  0.177750  1.0  0.6305
  C  C725  1  0.452800  0.312900  0.133480  1.0  0.0013
  C  C726  1  0.449200  0.294600  0.115680  1.0  -0.1198
  C  C727  1  0.315300  0.333220  0.114860  1.0  0.1738
  C  C728  1  0.324000  0.294920  0.084200  1.0  0.1837
  C  C729  1  0.412100  0.285300  0.070630  1.0  -0.2426
  C  C730  1  0.380800  0.269920  0.052030  1.0  0.1842
  C  C731  1  0.265900  0.265190  0.046450  1.0  -0.218
  C  C732  1  0.180100  0.275690  0.060180  1.0  0.1395
  C  C733  1  0.206500  0.290520  0.079290  1.0  -0.1973
  C  C734  1  0.964900  0.289180  0.060980  1.0  -0.1097
  C  C735  1  0.869600  0.273810  0.053200  1.0  -0.0036
  C  C736  1  0.018300  0.243460  0.044210  1.0  0.11
  C  C737  1  0.471200  0.256260  0.017070  1.0  -0.1128
  C  C738  1  0.573500  0.244860  0.045590  1.0  0.1223
  C  C739  1  0.573900  0.241760  0.011810  1.0  0.0333
  C  C740  1  0.726900  0.179250  0.068390  1.0  0.7233
  C  C741  1  0.673800  0.151390  0.080680  1.0  -0.124
  C  C742  1  0.671300  0.151650  0.102270  1.0  -0.0404
  C  C743  1  0.124200  0.931440  0.750440  1.0  0.6782
  C  C744  1  0.085300  0.913300  0.730620  1.0  -0.1398
  C  C745  1  0.974600  0.899790  0.730340  1.0  -0.0642
  C  C746  1  0.934300  0.882460  0.712770  1.0  0.0424
  C  C747  1  0.007300  0.878770  0.695570  1.0  -0.0679
  C  C748  1  0.120100  0.892220  0.695970  1.0  -0.125
  C  C749  1  0.159200  0.909410  0.713410  1.0  -0.0312
  C  C750  1  0.200400  0.886600  0.677750  1.0  0.6305
  C  C751  1  0.452800  0.812900  0.633480  1.0  0.0013
  C  C752  1  0.449200  0.794600  0.615680  1.0  -0.1198
  C  C753  1  0.315300  0.833220  0.614860  1.0  0.1738
  C  C754  1  0.324000  0.794920  0.584200  1.0  0.1837
  C  C755  1  0.412100  0.785300  0.570630  1.0  -0.2426
  C  C756  1  0.380800  0.769920  0.552030  1.0  0.1842
  C  C757  1  0.265900  0.765190  0.546450  1.0  -0.218
  C  C758  1  0.180100  0.775690  0.560180  1.0  0.1395
  C  C759  1  0.206500  0.790520  0.579290  1.0  -0.1973
  C  C760  1  0.964900  0.789180  0.560980  1.0  -0.1097
  C  C761  1  0.869600  0.773810  0.553200  1.0  -0.0036
  C  C762  1  0.018300  0.743460  0.544210  1.0  0.11
  C  C763  1  0.471200  0.756260  0.517070  1.0  -0.1128
  C  C764  1  0.573500  0.744860  0.545590  1.0  0.1223
  C  C765  1  0.573900  0.741760  0.511810  1.0  0.0333
  C  C766  1  0.726900  0.679250  0.568390  1.0  0.7233
  C  C767  1  0.673800  0.651390  0.580680  1.0  -0.124
  C  C768  1  0.671300  0.651650  0.602270  1.0  -0.0404
  C  C769  1  0.624200  0.318560  0.999560  1.0  0.6786
  C  C770  1  0.585300  0.336700  0.019380  1.0  -0.1382
  C  C771  1  0.474600  0.350210  0.019660  1.0  -0.063
  C  C772  1  0.434300  0.367540  0.037230  1.0  0.0411
  C  C773  1  0.507300  0.371230  0.054430  1.0  -0.0667
  C  C774  1  0.620100  0.357780  0.054030  1.0  -0.1253
  C  C775  1  0.659200  0.340590  0.036590  1.0  -0.0295
  C  C776  1  0.700400  0.363400  0.072250  1.0  0.6312
  C  C777  1  0.952800  0.437100  0.116520  1.0  0.0009
  C  C778  1  0.949200  0.455400  0.134320  1.0  -0.1188
  C  C779  1  0.815300  0.416780  0.135140  1.0  0.1727
  C  C780  1  0.824000  0.455080  0.165800  1.0  0.1837
  C  C781  1  0.912100  0.464700  0.179370  1.0  -0.2433
  C  C782  1  0.880800  0.480080  0.197970  1.0  0.1846
  C  C783  1  0.765900  0.484810  0.203550  1.0  -0.2183
  C  C784  1  0.680100  0.474310  0.189820  1.0  0.1392
  C  C785  1  0.706500  0.459480  0.170710  1.0  -0.1987
  C  C786  1  0.464900  0.460820  0.189020  1.0  -0.1091
  C  C787  1  0.369600  0.476190  0.196800  1.0  -0.0038
  C  C788  1  0.518300  0.506540  0.205790  1.0  0.1088
  C  C789  1  0.971200  0.493740  0.232930  1.0  -0.1137
  C  C790  1  0.073500  0.505140  0.204410  1.0  0.1215
  C  C791  1  0.073900  0.508240  0.238190  1.0  0.0337
  C  C792  1  0.226900  0.570750  0.181610  1.0  0.7242
  C  C793  1  0.173800  0.598610  0.169320  1.0  -0.1252
  C  C794  1  0.171300  0.598350  0.147730  1.0  -0.0414
  C  C795  1  0.624200  0.818560  0.499560  1.0  0.6786
  C  C796  1  0.585300  0.836700  0.519380  1.0  -0.1382
  C  C797  1  0.474600  0.850210  0.519660  1.0  -0.063
  C  C798  1  0.434300  0.867540  0.537230  1.0  0.0411
  C  C799  1  0.507300  0.871230  0.554430  1.0  -0.0667
  C  C800  1  0.620100  0.857780  0.554030  1.0  -0.1253
  C  C801  1  0.659200  0.840590  0.536590  1.0  -0.0295
  C  C802  1  0.700400  0.863400  0.572250  1.0  0.6312
  C  C803  1  0.952800  0.937100  0.616520  1.0  0.0009
  C  C804  1  0.949200  0.955400  0.634320  1.0  -0.1188
  C  C805  1  0.815300  0.916780  0.635140  1.0  0.1727
  C  C806  1  0.824000  0.955080  0.665800  1.0  0.1837
  C  C807  1  0.912100  0.964700  0.679370  1.0  -0.2433
  C  C808  1  0.880800  0.980080  0.697970  1.0  0.1846
  C  C809  1  0.765900  0.984810  0.703550  1.0  -0.2183
  C  C810  1  0.680100  0.974310  0.689820  1.0  0.1392
  C  C811  1  0.706500  0.959480  0.670710  1.0  -0.1987
  C  C812  1  0.464900  0.960820  0.689020  1.0  -0.1091
  C  C813  1  0.369600  0.976190  0.696800  1.0  -0.0038
  C  C814  1  0.518300  0.006540  0.705790  1.0  0.1088
  C  C815  1  0.971200  0.993740  0.732930  1.0  -0.1137
  C  C816  1  0.073500  0.005140  0.704410  1.0  0.1215
  C  C817  1  0.073900  0.008240  0.738190  1.0  0.0337
  C  C818  1  0.226900  0.070750  0.681610  1.0  0.7242
  C  C819  1  0.173800  0.098610  0.669320  1.0  -0.1252
  C  C820  1  0.171300  0.098350  0.647730  1.0  -0.0414
  C  C821  1  0.124200  0.318560  0.499560  1.0  0.6786
  C  C822  1  0.085300  0.336700  0.519380  1.0  -0.1382
  C  C823  1  0.974600  0.350210  0.519660  1.0  -0.063
  C  C824  1  0.934300  0.367540  0.537230  1.0  0.0411
  C  C825  1  0.007300  0.371230  0.554430  1.0  -0.0667
  C  C826  1  0.120100  0.357780  0.554030  1.0  -0.1253
  C  C827  1  0.159200  0.340590  0.536590  1.0  -0.0295
  C  C828  1  0.200400  0.363400  0.572250  1.0  0.6312
  C  C829  1  0.452800  0.437100  0.616520  1.0  0.0009
  C  C830  1  0.449200  0.455400  0.634320  1.0  -0.1188
  C  C831  1  0.315300  0.416780  0.635140  1.0  0.1727
  C  C832  1  0.324000  0.455080  0.665800  1.0  0.1837
  C  C833  1  0.412100  0.464700  0.679370  1.0  -0.2433
  C  C834  1  0.380800  0.480080  0.697970  1.0  0.1846
  C  C835  1  0.265900  0.484810  0.703550  1.0  -0.2183
  C  C836  1  0.180100  0.474310  0.689820  1.0  0.1392
  C  C837  1  0.206500  0.459480  0.670710  1.0  -0.1987
  C  C838  1  0.964900  0.460820  0.689020  1.0  -0.1091
  C  C839  1  0.869600  0.476190  0.696800  1.0  -0.0038
  C  C840  1  0.018300  0.506540  0.705790  1.0  0.1088
  C  C841  1  0.471200  0.493740  0.732930  1.0  -0.1137
  C  C842  1  0.573500  0.505140  0.704410  1.0  0.1215
  C  C843  1  0.573900  0.508240  0.738190  1.0  0.0337
  C  C844  1  0.726900  0.570750  0.681610  1.0  0.7242
  C  C845  1  0.673800  0.598610  0.669320  1.0  -0.1252
  C  C846  1  0.671300  0.598350  0.647730  1.0  -0.0414
  C  C847  1  0.124200  0.818560  0.999560  1.0  0.6786
  C  C848  1  0.085300  0.836700  0.019380  1.0  -0.1382
  C  C849  1  0.974600  0.850210  0.019660  1.0  -0.063
  C  C850  1  0.934300  0.867540  0.037230  1.0  0.0411
  C  C851  1  0.007300  0.871230  0.054430  1.0  -0.0667
  C  C852  1  0.120100  0.857780  0.054030  1.0  -0.1253
  C  C853  1  0.159200  0.840590  0.036590  1.0  -0.0295
  C  C854  1  0.200400  0.863400  0.072250  1.0  0.6312
  C  C855  1  0.452800  0.937100  0.116520  1.0  0.0009
  C  C856  1  0.449200  0.955400  0.134320  1.0  -0.1188
  C  C857  1  0.315300  0.916780  0.135140  1.0  0.1727
  C  C858  1  0.324000  0.955080  0.165800  1.0  0.1837
  C  C859  1  0.412100  0.964700  0.179370  1.0  -0.2433
  C  C860  1  0.380800  0.980080  0.197970  1.0  0.1846
  C  C861  1  0.265900  0.984810  0.203550  1.0  -0.2183
  C  C862  1  0.180100  0.974310  0.189820  1.0  0.1392
  C  C863  1  0.206500  0.959480  0.170710  1.0  -0.1987
  C  C864  1  0.964900  0.960820  0.189020  1.0  -0.1091
  C  C865  1  0.869600  0.976190  0.196800  1.0  -0.0038
  C  C866  1  0.018300  0.006540  0.205790  1.0  0.1088
  C  C867  1  0.471200  0.993740  0.232930  1.0  -0.1137
  C  C868  1  0.573500  0.005140  0.204410  1.0  0.1215
  C  C869  1  0.573900  0.008240  0.238190  1.0  0.0337
  C  C870  1  0.726900  0.070750  0.181610  1.0  0.7242
  C  C871  1  0.673800  0.098610  0.169320  1.0  -0.1252
  C  C872  1  0.671300  0.098350  0.147730  1.0  -0.0414
  C  C873  1  0.125800  0.431440  0.999560  1.0  0.6771
  C  C874  1  0.164700  0.413300  0.019380  1.0  -0.138
  C  C875  1  0.275400  0.399790  0.019660  1.0  -0.0639
  C  C876  1  0.315700  0.382460  0.037230  1.0  0.0417
  C  C877  1  0.242700  0.378770  0.054430  1.0  -0.0661
  C  C878  1  0.129900  0.392220  0.054030  1.0  -0.1247
  C  C879  1  0.090800  0.409410  0.036590  1.0  -0.0312
  C  C880  1  0.049600  0.386600  0.072250  1.0  0.631
  C  C881  1  0.797200  0.312900  0.116520  1.0  0.0005
  C  C882  1  0.800800  0.294600  0.134320  1.0  -0.1192
  C  C883  1  0.934700  0.333220  0.135140  1.0  0.1736
  C  C884  1  0.926000  0.294920  0.165800  1.0  0.1838
  C  C885  1  0.837900  0.285300  0.179370  1.0  -0.2466
  C  C886  1  0.869200  0.269920  0.197970  1.0  0.1841
  C  C887  1  0.984100  0.265190  0.203550  1.0  -0.2168
  C  C888  1  0.069900  0.275690  0.189820  1.0  0.1399
  C  C889  1  0.043500  0.290520  0.170710  1.0  -0.1972
  C  C890  1  0.285100  0.289180  0.189020  1.0  -0.1098
  C  C891  1  0.380400  0.273810  0.196800  1.0  -0.0039
  C  C892  1  0.231700  0.243460  0.205790  1.0  0.1101
  C  C893  1  0.778800  0.256260  0.232930  1.0  -0.1117
  C  C894  1  0.676500  0.244860  0.204410  1.0  0.1215
  C  C895  1  0.676100  0.241760  0.238190  1.0  0.0329
  C  C896  1  0.523100  0.179250  0.181610  1.0  0.7227
  C  C897  1  0.576200  0.151390  0.169320  1.0  -0.1246
  C  C898  1  0.578700  0.151650  0.147730  1.0  -0.0405
  C  C899  1  0.125800  0.931440  0.499560  1.0  0.6771
  C  C900  1  0.164700  0.913300  0.519380  1.0  -0.138
  C  C901  1  0.275400  0.899790  0.519660  1.0  -0.0639
  C  C902  1  0.315700  0.882460  0.537230  1.0  0.0417
  C  C903  1  0.242700  0.878770  0.554430  1.0  -0.0661
  C  C904  1  0.129900  0.892220  0.554030  1.0  -0.1247
  C  C905  1  0.090800  0.909410  0.536590  1.0  -0.0312
  C  C906  1  0.049600  0.886600  0.572250  1.0  0.631
  C  C907  1  0.797200  0.812900  0.616520  1.0  0.0005
  C  C908  1  0.800800  0.794600  0.634320  1.0  -0.1192
  C  C909  1  0.934700  0.833220  0.635140  1.0  0.1736
  C  C910  1  0.926000  0.794920  0.665800  1.0  0.1838
  C  C911  1  0.837900  0.785300  0.679370  1.0  -0.2466
  C  C912  1  0.869200  0.769920  0.697970  1.0  0.1841
  C  C913  1  0.984100  0.765190  0.703550  1.0  -0.2168
  C  C914  1  0.069900  0.775690  0.689820  1.0  0.1399
  C  C915  1  0.043500  0.790520  0.670710  1.0  -0.1972
  C  C916  1  0.285100  0.789180  0.689020  1.0  -0.1098
  C  C917  1  0.380400  0.773810  0.696800  1.0  -0.0039
  C  C918  1  0.231700  0.743460  0.705790  1.0  0.1101
  C  C919  1  0.778800  0.756260  0.732930  1.0  -0.1117
  C  C920  1  0.676500  0.744860  0.704410  1.0  0.1215
  C  C921  1  0.676100  0.741760  0.738190  1.0  0.0329
  C  C922  1  0.523100  0.679250  0.681610  1.0  0.7227
  C  C923  1  0.576200  0.651390  0.669320  1.0  -0.1246
  C  C924  1  0.578700  0.651650  0.647730  1.0  -0.0405
  C  C925  1  0.625800  0.431440  0.499560  1.0  0.6771
  C  C926  1  0.664700  0.413300  0.519380  1.0  -0.138
  C  C927  1  0.775400  0.399790  0.519660  1.0  -0.0639
  C  C928  1  0.815700  0.382460  0.537230  1.0  0.0417
  C  C929  1  0.742700  0.378770  0.554430  1.0  -0.0661
  C  C930  1  0.629900  0.392220  0.554030  1.0  -0.1247
  C  C931  1  0.590800  0.409410  0.536590  1.0  -0.0312
  C  C932  1  0.549600  0.386600  0.572250  1.0  0.631
  C  C933  1  0.297200  0.312900  0.616520  1.0  0.0005
  C  C934  1  0.300800  0.294600  0.634320  1.0  -0.1192
  C  C935  1  0.434700  0.333220  0.635140  1.0  0.1736
  C  C936  1  0.426000  0.294920  0.665800  1.0  0.1838
  C  C937  1  0.337900  0.285300  0.679370  1.0  -0.2466
  C  C938  1  0.369200  0.269920  0.697970  1.0  0.1841
  C  C939  1  0.484100  0.265190  0.703550  1.0  -0.2168
  C  C940  1  0.569900  0.275690  0.689820  1.0  0.1399
  C  C941  1  0.543500  0.290520  0.670710  1.0  -0.1972
  C  C942  1  0.785100  0.289180  0.689020  1.0  -0.1098
  C  C943  1  0.880400  0.273810  0.696800  1.0  -0.0039
  C  C944  1  0.731700  0.243460  0.705790  1.0  0.1101
  C  C945  1  0.278800  0.256260  0.732930  1.0  -0.1117
  C  C946  1  0.176500  0.244860  0.704410  1.0  0.1215
  C  C947  1  0.176100  0.241760  0.738190  1.0  0.0329
  C  C948  1  0.023100  0.179250  0.681610  1.0  0.719
  C  C949  1  0.076200  0.151390  0.669320  1.0  -0.1269
  C  C950  1  0.078700  0.151650  0.647730  1.0  -0.0405
  C  C951  1  0.625800  0.931440  0.999560  1.0  0.6771
  C  C952  1  0.664700  0.913300  0.019380  1.0  -0.138
  C  C953  1  0.775400  0.899790  0.019660  1.0  -0.0639
  C  C954  1  0.815700  0.882460  0.037230  1.0  0.0417
  C  C955  1  0.742700  0.878770  0.054430  1.0  -0.0661
  C  C956  1  0.629900  0.892220  0.054030  1.0  -0.1247
  C  C957  1  0.590800  0.909410  0.036590  1.0  -0.0312
  C  C958  1  0.549600  0.886600  0.072250  1.0  0.631
  C  C959  1  0.297200  0.812900  0.116520  1.0  0.0005
  C  C960  1  0.300800  0.794600  0.134320  1.0  -0.1192
  C  C961  1  0.434700  0.833220  0.135140  1.0  0.1736
  C  C962  1  0.426000  0.794920  0.165800  1.0  0.1838
  C  C963  1  0.337900  0.785300  0.179370  1.0  -0.2466
  C  C964  1  0.369200  0.769920  0.197970  1.0  0.1841
  C  C965  1  0.484100  0.765190  0.203550  1.0  -0.2168
  C  C966  1  0.569900  0.775690  0.189820  1.0  0.1399
  C  C967  1  0.543500  0.790520  0.170710  1.0  -0.1972
  C  C968  1  0.785100  0.789180  0.189020  1.0  -0.1098
  C  C969  1  0.880400  0.773810  0.196800  1.0  -0.0039
  C  C970  1  0.731700  0.743460  0.205790  1.0  0.1101
  C  C971  1  0.278800  0.756260  0.232930  1.0  -0.1117
  C  C972  1  0.176500  0.744860  0.204410  1.0  0.1215
  C  C973  1  0.176100  0.741760  0.238190  1.0  0.0329
  C  C974  1  0.023100  0.679250  0.181610  1.0  0.719
  C  C975  1  0.076200  0.651390  0.169320  1.0  -0.1269
  C  C976  1  0.078700  0.651650  0.147730  1.0  -0.0405
  C  C977  1  0.874200  0.681440  0.249560  1.0  0.6767
  C  C978  1  0.835300  0.663300  0.269380  1.0  -0.1391
  C  C979  1  0.724600  0.649790  0.269660  1.0  -0.063
  C  C980  1  0.684300  0.632460  0.287230  1.0  0.0415
  C  C981  1  0.757300  0.628770  0.304430  1.0  -0.0665
  C  C982  1  0.870100  0.642220  0.304030  1.0  -0.1251
  C  C983  1  0.909200  0.659410  0.286590  1.0  -0.0294
  C  C984  1  0.950400  0.636600  0.322250  1.0  0.6311
  C  C985  1  0.202800  0.562900  0.366520  1.0  0.0005
  C  C986  1  0.199200  0.544600  0.384320  1.0  -0.1194
  C  C987  1  0.065300  0.583220  0.385140  1.0  0.173
  C  C988  1  0.074000  0.544920  0.415800  1.0  0.1836
  C  C989  1  0.162100  0.535300  0.429370  1.0  -0.2438
  C  C990  1  0.130800  0.519920  0.447970  1.0  0.1841
  C  C991  1  0.015900  0.515190  0.453550  1.0  -0.2188
  C  C992  1  0.930100  0.525690  0.439820  1.0  0.1394
  C  C993  1  0.956500  0.540520  0.420710  1.0  -0.1981
  C  C994  1  0.714900  0.539180  0.439020  1.0  -0.1097
  C  C995  1  0.619600  0.523810  0.446800  1.0  -0.0039
  C  C996  1  0.768300  0.493460  0.455790  1.0  0.1095
  C  C997  1  0.221200  0.506260  0.482930  1.0  -0.1129
  C  C998  1  0.323500  0.494860  0.454410  1.0  0.1213
  C  C999  1  0.323900  0.491760  0.488190  1.0  0.0338
  C  C1000  1  0.476900  0.429250  0.431610  1.0  0.7233
  C  C1001  1  0.423800  0.401390  0.419320  1.0  -0.1252
  C  C1002  1  0.421300  0.401650  0.397730  1.0  -0.0425
  C  C1003  1  0.874200  0.181440  0.749560  1.0  0.6767
  C  C1004  1  0.835300  0.163300  0.769380  1.0  -0.1391
  C  C1005  1  0.724600  0.149790  0.769660  1.0  -0.063
  C  C1006  1  0.684300  0.132460  0.787230  1.0  0.0415
  C  C1007  1  0.757300  0.128770  0.804430  1.0  -0.0665
  C  C1008  1  0.870100  0.142220  0.804030  1.0  -0.1251
  C  C1009  1  0.909200  0.159410  0.786590  1.0  -0.0294
  C  C1010  1  0.950400  0.136600  0.822250  1.0  0.6311
  C  C1011  1  0.202800  0.062900  0.866520  1.0  0.0005
  C  C1012  1  0.199200  0.044600  0.884320  1.0  -0.1194
  C  C1013  1  0.065300  0.083220  0.885140  1.0  0.173
  C  C1014  1  0.074000  0.044920  0.915800  1.0  0.1836
  C  C1015  1  0.162100  0.035300  0.929370  1.0  -0.2438
  C  C1016  1  0.130800  0.019920  0.947970  1.0  0.1841
  C  C1017  1  0.015900  0.015190  0.953550  1.0  -0.2188
  C  C1018  1  0.930100  0.025690  0.939820  1.0  0.1394
  C  C1019  1  0.956500  0.040520  0.920710  1.0  -0.1981
  C  C1020  1  0.714900  0.039180  0.939020  1.0  -0.1097
  C  C1021  1  0.619600  0.023810  0.946800  1.0  -0.0039
  C  C1022  1  0.768300  0.993460  0.955790  1.0  0.1095
  C  C1023  1  0.221200  0.006260  0.982930  1.0  -0.1129
  C  C1024  1  0.323500  0.994860  0.954410  1.0  0.1213
  C  C1025  1  0.323900  0.991760  0.988190  1.0  0.0338
  C  C1026  1  0.476900  0.929250  0.931610  1.0  0.7233
  C  C1027  1  0.423800  0.901390  0.919320  1.0  -0.1252
  C  C1028  1  0.421300  0.901650  0.897730  1.0  -0.0425
  C  C1029  1  0.374200  0.681440  0.749560  1.0  0.6767
  C  C1030  1  0.335300  0.663300  0.769380  1.0  -0.1391
  C  C1031  1  0.224600  0.649790  0.769660  1.0  -0.063
  C  C1032  1  0.184300  0.632460  0.787230  1.0  0.0415
  C  C1033  1  0.257300  0.628770  0.804430  1.0  -0.0665
  C  C1034  1  0.370100  0.642220  0.804030  1.0  -0.1251
  C  C1035  1  0.409200  0.659410  0.786590  1.0  -0.0294
  C  C1036  1  0.450400  0.636600  0.822250  1.0  0.6311
  C  C1037  1  0.702800  0.562900  0.866520  1.0  0.0005
  C  C1038  1  0.699200  0.544600  0.884320  1.0  -0.1194
  C  C1039  1  0.565300  0.583220  0.885140  1.0  0.173
  C  C1040  1  0.574000  0.544920  0.915800  1.0  0.1836
  C  C1041  1  0.662100  0.535300  0.929370  1.0  -0.2438
  C  C1042  1  0.630800  0.519920  0.947970  1.0  0.1841
  C  C1043  1  0.515900  0.515190  0.953550  1.0  -0.2188
  C  C1044  1  0.430100  0.525690  0.939820  1.0  0.1394
  C  C1045  1  0.456500  0.540520  0.920710  1.0  -0.1981
  C  C1046  1  0.214900  0.539180  0.939020  1.0  -0.1097
  C  C1047  1  0.119600  0.523810  0.946800  1.0  -0.0039
  C  C1048  1  0.268300  0.493460  0.955790  1.0  0.1095
  C  C1049  1  0.721200  0.506260  0.982930  1.0  -0.1129
  C  C1050  1  0.823500  0.494860  0.954410  1.0  0.1213
  C  C1051  1  0.823900  0.491760  0.988190  1.0  0.0338
  C  C1052  1  0.976900  0.429250  0.931610  1.0  0.72
  C  C1053  1  0.923800  0.401390  0.919320  1.0  -0.1275
  C  C1054  1  0.921300  0.401650  0.897730  1.0  -0.0425
  C  C1055  1  0.374200  0.181440  0.249560  1.0  0.6767
  C  C1056  1  0.335300  0.163300  0.269380  1.0  -0.1391
  C  C1057  1  0.224600  0.149790  0.269660  1.0  -0.063
  C  C1058  1  0.184300  0.132460  0.287230  1.0  0.0415
  C  C1059  1  0.257300  0.128770  0.304430  1.0  -0.0665
  C  C1060  1  0.370100  0.142220  0.304030  1.0  -0.1251
  C  C1061  1  0.409200  0.159410  0.286590  1.0  -0.0294
  C  C1062  1  0.450400  0.136600  0.322250  1.0  0.6311
  C  C1063  1  0.702800  0.062900  0.366520  1.0  0.0005
  C  C1064  1  0.699200  0.044600  0.384320  1.0  -0.1194
  C  C1065  1  0.565300  0.083220  0.385140  1.0  0.173
  C  C1066  1  0.574000  0.044920  0.415800  1.0  0.1836
  C  C1067  1  0.662100  0.035300  0.429370  1.0  -0.2438
  C  C1068  1  0.630800  0.019920  0.447970  1.0  0.1841
  C  C1069  1  0.515900  0.015190  0.453550  1.0  -0.2188
  C  C1070  1  0.430100  0.025690  0.439820  1.0  0.1394
  C  C1071  1  0.456500  0.040520  0.420710  1.0  -0.1981
  C  C1072  1  0.214900  0.039180  0.439020  1.0  -0.1097
  C  C1073  1  0.119600  0.023810  0.446800  1.0  -0.0039
  C  C1074  1  0.268300  0.993460  0.455790  1.0  0.1095
  C  C1075  1  0.721200  0.006260  0.482930  1.0  -0.1129
  C  C1076  1  0.823500  0.994860  0.454410  1.0  0.1213
  C  C1077  1  0.823900  0.991760  0.488190  1.0  0.0338
  C  C1078  1  0.976900  0.929250  0.431610  1.0  0.72
  C  C1079  1  0.923800  0.901390  0.419320  1.0  -0.1275
  C  C1080  1  0.921300  0.901650  0.397730  1.0  -0.0425
  C  C1081  1  0.375800  0.568560  0.249560  1.0  0.679
  C  C1082  1  0.414700  0.586700  0.269380  1.0  -0.1371
  C  C1083  1  0.525400  0.600210  0.269660  1.0  -0.0635
  C  C1084  1  0.565700  0.617540  0.287230  1.0  0.0413
  C  C1085  1  0.492700  0.621230  0.304430  1.0  -0.0659
  C  C1086  1  0.379900  0.607780  0.304030  1.0  -0.125
  C  C1087  1  0.340800  0.590590  0.286590  1.0  -0.032
  C  C1088  1  0.299600  0.613400  0.322250  1.0  0.6309
  C  C1089  1  0.047200  0.687100  0.366520  1.0  0.0007
  C  C1090  1  0.050800  0.705400  0.384320  1.0  -0.1195
  C  C1091  1  0.184700  0.666780  0.385140  1.0  0.1732
  C  C1092  1  0.176000  0.705080  0.415800  1.0  0.1842
  C  C1093  1  0.087900  0.714700  0.429370  1.0  -0.2456
  C  C1094  1  0.119200  0.730080  0.447970  1.0  0.1845
  C  C1095  1  0.234100  0.734810  0.453550  1.0  -0.2162
  C  C1096  1  0.319900  0.724310  0.439820  1.0  0.1397
  C  C1097  1  0.293500  0.709480  0.420710  1.0  -0.1976
  C  C1098  1  0.535100  0.710820  0.439020  1.0  -0.1093
  C  C1099  1  0.630400  0.726190  0.446800  1.0  -0.0037
  C  C1100  1  0.481700  0.756540  0.455790  1.0  0.1088
  C  C1101  1  0.028800  0.743740  0.482930  1.0  -0.1121
  C  C1102  1  0.926500  0.755140  0.454410  1.0  0.1218
  C  C1103  1  0.926100  0.758240  0.488190  1.0  0.0327
  C  C1104  1  0.773100  0.820750  0.431610  1.0  0.7238
  C  C1105  1  0.826200  0.848610  0.419320  1.0  -0.1246
  C  C1106  1  0.828700  0.848350  0.397730  1.0  -0.0401
  C  C1107  1  0.375800  0.068560  0.749560  1.0  0.679
  C  C1108  1  0.414700  0.086700  0.769380  1.0  -0.1371
  C  C1109  1  0.525400  0.100210  0.769660  1.0  -0.0635
  C  C1110  1  0.565700  0.117540  0.787230  1.0  0.0413
  C  C1111  1  0.492700  0.121230  0.804430  1.0  -0.0659
  C  C1112  1  0.379900  0.107780  0.804030  1.0  -0.125
  C  C1113  1  0.340800  0.090590  0.786590  1.0  -0.032
  C  C1114  1  0.299600  0.113400  0.822250  1.0  0.6309
  C  C1115  1  0.047200  0.187100  0.866520  1.0  0.0007
  C  C1116  1  0.050800  0.205400  0.884320  1.0  -0.1195
  C  C1117  1  0.184700  0.166780  0.885140  1.0  0.1732
  C  C1118  1  0.176000  0.205080  0.915800  1.0  0.1842
  C  C1119  1  0.087900  0.214700  0.929370  1.0  -0.2456
  C  C1120  1  0.119200  0.230080  0.947970  1.0  0.1845
  C  C1121  1  0.234100  0.234810  0.953550  1.0  -0.2162
  C  C1122  1  0.319900  0.224310  0.939820  1.0  0.1397
  C  C1123  1  0.293500  0.209480  0.920710  1.0  -0.1976
  C  C1124  1  0.535100  0.210820  0.939020  1.0  -0.1093
  C  C1125  1  0.630400  0.226190  0.946800  1.0  -0.0037
  C  C1126  1  0.481700  0.256540  0.955790  1.0  0.1088
  C  C1127  1  0.028800  0.243740  0.982930  1.0  -0.1121
  C  C1128  1  0.926500  0.255140  0.954410  1.0  0.1218
  C  C1129  1  0.926100  0.258240  0.988190  1.0  0.0327
  C  C1130  1  0.773100  0.320750  0.931610  1.0  0.7238
  C  C1131  1  0.826200  0.348610  0.919320  1.0  -0.1246
  C  C1132  1  0.828700  0.348350  0.897730  1.0  -0.0401
  C  C1133  1  0.875800  0.568560  0.749560  1.0  0.679
  C  C1134  1  0.914700  0.586700  0.769380  1.0  -0.1371
  C  C1135  1  0.025400  0.600210  0.769660  1.0  -0.0635
  C  C1136  1  0.065700  0.617540  0.787230  1.0  0.0413
  C  C1137  1  0.992700  0.621230  0.804430  1.0  -0.0659
  C  C1138  1  0.879900  0.607780  0.804030  1.0  -0.125
  C  C1139  1  0.840800  0.590590  0.786590  1.0  -0.032
  C  C1140  1  0.799600  0.613400  0.822250  1.0  0.6309
  C  C1141  1  0.547200  0.687100  0.866520  1.0  0.0007
  C  C1142  1  0.550800  0.705400  0.884320  1.0  -0.1195
  C  C1143  1  0.684700  0.666780  0.885140  1.0  0.1732
  C  C1144  1  0.676000  0.705080  0.915800  1.0  0.1842
  C  C1145  1  0.587900  0.714700  0.929370  1.0  -0.2456
  C  C1146  1  0.619200  0.730080  0.947970  1.0  0.1845
  C  C1147  1  0.734100  0.734810  0.953550  1.0  -0.2162
  C  C1148  1  0.819900  0.724310  0.939820  1.0  0.1397
  C  C1149  1  0.793500  0.709480  0.920710  1.0  -0.1976
  C  C1150  1  0.035100  0.710820  0.939020  1.0  -0.1093
  C  C1151  1  0.130400  0.726190  0.946800  1.0  -0.0037
  C  C1152  1  0.981700  0.756540  0.955790  1.0  0.1088
  C  C1153  1  0.528800  0.743740  0.982930  1.0  -0.1121
  C  C1154  1  0.426500  0.755140  0.954410  1.0  0.1218
  C  C1155  1  0.426100  0.758240  0.988190  1.0  0.0327
  C  C1156  1  0.273100  0.820750  0.931610  1.0  0.7238
  C  C1157  1  0.326200  0.848610  0.919320  1.0  -0.1246
  C  C1158  1  0.328700  0.848350  0.897730  1.0  -0.0401
  C  C1159  1  0.875800  0.068560  0.249560  1.0  0.679
  C  C1160  1  0.914700  0.086700  0.269380  1.0  -0.1371
  C  C1161  1  0.025400  0.100210  0.269660  1.0  -0.0635
  C  C1162  1  0.065700  0.117540  0.287230  1.0  0.0413
  C  C1163  1  0.992700  0.121230  0.304430  1.0  -0.0659
  C  C1164  1  0.879900  0.107780  0.304030  1.0  -0.125
  C  C1165  1  0.840800  0.090590  0.286590  1.0  -0.032
  C  C1166  1  0.799600  0.113400  0.322250  1.0  0.6309
  C  C1167  1  0.547200  0.187100  0.366520  1.0  0.0007
  C  C1168  1  0.550800  0.205400  0.384320  1.0  -0.1195
  C  C1169  1  0.684700  0.166780  0.385140  1.0  0.1732
  C  C1170  1  0.676000  0.205080  0.415800  1.0  0.1842
  C  C1171  1  0.587900  0.214700  0.429370  1.0  -0.2456
  C  C1172  1  0.619200  0.230080  0.447970  1.0  0.1845
  C  C1173  1  0.734100  0.234810  0.453550  1.0  -0.2162
  C  C1174  1  0.819900  0.224310  0.439820  1.0  0.1397
  C  C1175  1  0.793500  0.209480  0.420710  1.0  -0.1976
  C  C1176  1  0.035100  0.210820  0.439020  1.0  -0.1093
  C  C1177  1  0.130400  0.226190  0.446800  1.0  -0.0037
  C  C1178  1  0.981700  0.256540  0.455790  1.0  0.1088
  C  C1179  1  0.528800  0.243740  0.482930  1.0  -0.1121
  C  C1180  1  0.426500  0.255140  0.454410  1.0  0.1218
  C  C1181  1  0.426100  0.258240  0.488190  1.0  0.0327
  C  C1182  1  0.273100  0.320750  0.431610  1.0  0.7238
  C  C1183  1  0.326200  0.348610  0.419320  1.0  -0.1246
  C  C1184  1  0.328700  0.348350  0.397730  1.0  -0.0401
  C  C1185  1  0.375800  0.681440  0.000440  1.0  0.6781
  C  C1186  1  0.414700  0.663300  0.980620  1.0  -0.1391
  C  C1187  1  0.525400  0.649790  0.980340  1.0  -0.0631
  C  C1188  1  0.565700  0.632460  0.962770  1.0  0.0423
  C  C1189  1  0.492700  0.628770  0.945570  1.0  -0.0676
  C  C1190  1  0.379900  0.642220  0.945970  1.0  -0.1256
  C  C1191  1  0.340800  0.659410  0.963410  1.0  -0.0324
  C  C1192  1  0.299600  0.636600  0.927750  1.0  0.6306
  C  C1193  1  0.047200  0.562900  0.883480  1.0  0.0009
  C  C1194  1  0.050800  0.544600  0.865680  1.0  -0.1196
  C  C1195  1  0.184700  0.583220  0.864860  1.0  0.1742
  C  C1196  1  0.176000  0.544920  0.834200  1.0  0.1841
  C  C1197  1  0.087900  0.535300  0.820630  1.0  -0.2454
  C  C1198  1  0.119200  0.519920  0.802030  1.0  0.1842
  C  C1199  1  0.234100  0.515190  0.796450  1.0  -0.2159
  C  C1200  1  0.319900  0.525690  0.810180  1.0  0.14
  C  C1201  1  0.293500  0.540520  0.829290  1.0  -0.1959
  C  C1202  1  0.535100  0.539180  0.810980  1.0  -0.1097
  C  C1203  1  0.630400  0.523810  0.803200  1.0  -0.0035
  C  C1204  1  0.481700  0.493460  0.794210  1.0  0.1103
  C  C1205  1  0.028800  0.506260  0.767070  1.0  -0.1118
  C  C1206  1  0.926500  0.494860  0.795590  1.0  0.1224
  C  C1207  1  0.926100  0.491760  0.761810  1.0  0.0327
  C  C1208  1  0.773100  0.429250  0.818390  1.0  0.7227
  C  C1209  1  0.826200  0.401390  0.830680  1.0  -0.1233
  C  C1210  1  0.828700  0.401650  0.852270  1.0  -0.0422
  C  C1211  1  0.375800  0.181440  0.500440  1.0  0.6781
  C  C1212  1  0.414700  0.163300  0.480620  1.0  -0.1391
  C  C1213  1  0.525400  0.149790  0.480340  1.0  -0.0631
  C  C1214  1  0.565700  0.132460  0.462770  1.0  0.0423
  C  C1215  1  0.492700  0.128770  0.445570  1.0  -0.0676
  C  C1216  1  0.379900  0.142220  0.445970  1.0  -0.1256
  C  C1217  1  0.340800  0.159410  0.463410  1.0  -0.0324
  C  C1218  1  0.299600  0.136600  0.427750  1.0  0.6306
  C  C1219  1  0.047200  0.062900  0.383480  1.0  0.0009
  C  C1220  1  0.050800  0.044600  0.365680  1.0  -0.1196
  C  C1221  1  0.184700  0.083220  0.364860  1.0  0.1742
  C  C1222  1  0.176000  0.044920  0.334200  1.0  0.1841
  C  C1223  1  0.087900  0.035300  0.320630  1.0  -0.2454
  C  C1224  1  0.119200  0.019920  0.302030  1.0  0.1842
  C  C1225  1  0.234100  0.015190  0.296450  1.0  -0.2159
  C  C1226  1  0.319900  0.025690  0.310180  1.0  0.14
  C  C1227  1  0.293500  0.040520  0.329290  1.0  -0.1959
  C  C1228  1  0.535100  0.039180  0.310980  1.0  -0.1097
  C  C1229  1  0.630400  0.023810  0.303200  1.0  -0.0035
  C  C1230  1  0.481700  0.993460  0.294210  1.0  0.1103
  C  C1231  1  0.028800  0.006260  0.267070  1.0  -0.1118
  C  C1232  1  0.926500  0.994860  0.295590  1.0  0.1224
  C  C1233  1  0.926100  0.991760  0.261810  1.0  0.0327
  C  C1234  1  0.773100  0.929250  0.318390  1.0  0.7227
  C  C1235  1  0.826200  0.901390  0.330680  1.0  -0.1233
  C  C1236  1  0.828700  0.901650  0.352270  1.0  -0.0422
  C  C1237  1  0.875800  0.681440  0.500440  1.0  0.6781
  C  C1238  1  0.914700  0.663300  0.480620  1.0  -0.1391
  C  C1239  1  0.025400  0.649790  0.480340  1.0  -0.0631
  C  C1240  1  0.065700  0.632460  0.462770  1.0  0.0423
  C  C1241  1  0.992700  0.628770  0.445570  1.0  -0.0676
  C  C1242  1  0.879900  0.642220  0.445970  1.0  -0.1256
  C  C1243  1  0.840800  0.659410  0.463410  1.0  -0.0324
  C  C1244  1  0.799600  0.636600  0.427750  1.0  0.6306
  C  C1245  1  0.547200  0.562900  0.383480  1.0  0.0009
  C  C1246  1  0.550800  0.544600  0.365680  1.0  -0.1196
  C  C1247  1  0.684700  0.583220  0.364860  1.0  0.1742
  C  C1248  1  0.676000  0.544920  0.334200  1.0  0.1841
  C  C1249  1  0.587900  0.535300  0.320630  1.0  -0.2454
  C  C1250  1  0.619200  0.519920  0.302030  1.0  0.1842
  C  C1251  1  0.734100  0.515190  0.296450  1.0  -0.2159
  C  C1252  1  0.819900  0.525690  0.310180  1.0  0.14
  C  C1253  1  0.793500  0.540520  0.329290  1.0  -0.1959
  C  C1254  1  0.035100  0.539180  0.310980  1.0  -0.1097
  C  C1255  1  0.130400  0.523810  0.303200  1.0  -0.0035
  C  C1256  1  0.981700  0.493460  0.294210  1.0  0.1103
  C  C1257  1  0.528800  0.506260  0.267070  1.0  -0.1118
  C  C1258  1  0.426500  0.494860  0.295590  1.0  0.1224
  C  C1259  1  0.426100  0.491760  0.261810  1.0  0.0327
  C  C1260  1  0.273100  0.429250  0.318390  1.0  0.7227
  C  C1261  1  0.326200  0.401390  0.330680  1.0  -0.1233
  C  C1262  1  0.328700  0.401650  0.352270  1.0  -0.0422
  C  C1263  1  0.875800  0.181440  0.000440  1.0  0.6781
  C  C1264  1  0.914700  0.163300  0.980620  1.0  -0.1391
  C  C1265  1  0.025400  0.149790  0.980340  1.0  -0.0631
  C  C1266  1  0.065700  0.132460  0.962770  1.0  0.0423
  C  C1267  1  0.992700  0.128770  0.945570  1.0  -0.0676
  C  C1268  1  0.879900  0.142220  0.945970  1.0  -0.1256
  C  C1269  1  0.840800  0.159410  0.963410  1.0  -0.0324
  C  C1270  1  0.799600  0.136600  0.927750  1.0  0.6306
  C  C1271  1  0.547200  0.062900  0.883480  1.0  0.0009
  C  C1272  1  0.550800  0.044600  0.865680  1.0  -0.1196
  C  C1273  1  0.684700  0.083220  0.864860  1.0  0.1742
  C  C1274  1  0.676000  0.044920  0.834200  1.0  0.1841
  C  C1275  1  0.587900  0.035300  0.820630  1.0  -0.2454
  C  C1276  1  0.619200  0.019920  0.802030  1.0  0.1842
  C  C1277  1  0.734100  0.015190  0.796450  1.0  -0.2159
  C  C1278  1  0.819900  0.025690  0.810180  1.0  0.14
  C  C1279  1  0.793500  0.040520  0.829290  1.0  -0.1959
  C  C1280  1  0.035100  0.039180  0.810980  1.0  -0.1097
  C  C1281  1  0.130400  0.023810  0.803200  1.0  -0.0035
  C  C1282  1  0.981700  0.993460  0.794210  1.0  0.1103
  C  C1283  1  0.528800  0.006260  0.767070  1.0  -0.1118
  C  C1284  1  0.426500  0.994860  0.795590  1.0  0.1224
  C  C1285  1  0.426100  0.991760  0.761810  1.0  0.0327
  C  C1286  1  0.273100  0.929250  0.818390  1.0  0.7227
  C  C1287  1  0.326200  0.901390  0.830680  1.0  -0.1233
  C  C1288  1  0.328700  0.901650  0.852270  1.0  -0.0422
  C  C1289  1  0.874200  0.568560  0.000440  1.0  0.6784
  C  C1290  1  0.835300  0.586700  0.980620  1.0  -0.1384
  C  C1291  1  0.724600  0.600210  0.980340  1.0  -0.0647
  C  C1292  1  0.684300  0.617540  0.962770  1.0  0.0424
  C  C1293  1  0.757300  0.621230  0.945570  1.0  -0.0679
  C  C1294  1  0.870100  0.607780  0.945970  1.0  -0.125
  C  C1295  1  0.909200  0.590590  0.963410  1.0  -0.0311
  C  C1296  1  0.950400  0.613400  0.927750  1.0  0.6306
  C  C1297  1  0.202800  0.687100  0.883480  1.0  0.0012
  C  C1298  1  0.199200  0.705400  0.865680  1.0  -0.1194
  C  C1299  1  0.065300  0.666780  0.864860  1.0  0.173
  C  C1300  1  0.074000  0.705080  0.834200  1.0  0.1836
  C  C1301  1  0.162100  0.714700  0.820630  1.0  -0.2423
  C  C1302  1  0.130800  0.730080  0.802030  1.0  0.1845
  C  C1303  1  0.015900  0.734810  0.796450  1.0  -0.2174
  C  C1304  1  0.930100  0.724310  0.810180  1.0  0.1393
  C  C1305  1  0.956500  0.709480  0.829290  1.0  -0.1987
  C  C1306  1  0.714900  0.710820  0.810980  1.0  -0.1092
  C  C1307  1  0.619600  0.726190  0.803200  1.0  -0.0037
  C  C1308  1  0.768300  0.756540  0.794210  1.0  0.1093
  C  C1309  1  0.221200  0.743740  0.767070  1.0  -0.1133
  C  C1310  1  0.323500  0.755140  0.795590  1.0  0.1211
  C  C1311  1  0.323900  0.758240  0.761810  1.0  0.0339
  C  C1312  1  0.476900  0.820750  0.818390  1.0  0.7243
  C  C1313  1  0.423800  0.848610  0.830680  1.0  -0.1244
  C  C1314  1  0.421300  0.848350  0.852270  1.0  -0.0397
  C  C1315  1  0.874200  0.068560  0.500440  1.0  0.6784
  C  C1316  1  0.835300  0.086700  0.480620  1.0  -0.1384
  C  C1317  1  0.724600  0.100210  0.480340  1.0  -0.0647
  C  C1318  1  0.684300  0.117540  0.462770  1.0  0.0424
  C  C1319  1  0.757300  0.121230  0.445570  1.0  -0.0679
  C  C1320  1  0.870100  0.107780  0.445970  1.0  -0.125
  C  C1321  1  0.909200  0.090590  0.463410  1.0  -0.0311
  C  C1322  1  0.950400  0.113400  0.427750  1.0  0.6306
  C  C1323  1  0.202800  0.187100  0.383480  1.0  0.0012
  C  C1324  1  0.199200  0.205400  0.365680  1.0  -0.1194
  C  C1325  1  0.065300  0.166780  0.364860  1.0  0.173
  C  C1326  1  0.074000  0.205080  0.334200  1.0  0.1836
  C  C1327  1  0.162100  0.214700  0.320630  1.0  -0.2423
  C  C1328  1  0.130800  0.230080  0.302030  1.0  0.1845
  C  C1329  1  0.015900  0.234810  0.296450  1.0  -0.2174
  C  C1330  1  0.930100  0.224310  0.310180  1.0  0.1393
  C  C1331  1  0.956500  0.209480  0.329290  1.0  -0.1987
  C  C1332  1  0.714900  0.210820  0.310980  1.0  -0.1092
  C  C1333  1  0.619600  0.226190  0.303200  1.0  -0.0037
  C  C1334  1  0.768300  0.256540  0.294210  1.0  0.1093
  C  C1335  1  0.221200  0.243740  0.267070  1.0  -0.1133
  C  C1336  1  0.323500  0.255140  0.295590  1.0  0.1211
  C  C1337  1  0.323900  0.258240  0.261810  1.0  0.0339
  C  C1338  1  0.476900  0.320750  0.318390  1.0  0.7243
  C  C1339  1  0.423800  0.348610  0.330680  1.0  -0.1244
  C  C1340  1  0.421300  0.348350  0.352270  1.0  -0.0397
  C  C1341  1  0.374200  0.568560  0.500440  1.0  0.6784
  C  C1342  1  0.335300  0.586700  0.480620  1.0  -0.1384
  C  C1343  1  0.224600  0.600210  0.480340  1.0  -0.0647
  C  C1344  1  0.184300  0.617540  0.462770  1.0  0.0424
  C  C1345  1  0.257300  0.621230  0.445570  1.0  -0.0679
  C  C1346  1  0.370100  0.607780  0.445970  1.0  -0.125
  C  C1347  1  0.409200  0.590590  0.463410  1.0  -0.0311
  C  C1348  1  0.450400  0.613400  0.427750  1.0  0.6306
  C  C1349  1  0.702800  0.687100  0.383480  1.0  0.0012
  C  C1350  1  0.699200  0.705400  0.365680  1.0  -0.1194
  C  C1351  1  0.565300  0.666780  0.364860  1.0  0.173
  C  C1352  1  0.574000  0.705080  0.334200  1.0  0.1836
  C  C1353  1  0.662100  0.714700  0.320630  1.0  -0.2423
  C  C1354  1  0.630800  0.730080  0.302030  1.0  0.1845
  C  C1355  1  0.515900  0.734810  0.296450  1.0  -0.2174
  C  C1356  1  0.430100  0.724310  0.310180  1.0  0.1393
  C  C1357  1  0.456500  0.709480  0.329290  1.0  -0.1987
  C  C1358  1  0.214900  0.710820  0.310980  1.0  -0.1092
  C  C1359  1  0.119600  0.726190  0.303200  1.0  -0.0037
  C  C1360  1  0.268300  0.756540  0.294210  1.0  0.1093
  C  C1361  1  0.721200  0.743740  0.267070  1.0  -0.1133
  C  C1362  1  0.823500  0.755140  0.295590  1.0  0.1211
  C  C1363  1  0.823900  0.758240  0.261810  1.0  0.0339
  C  C1364  1  0.976900  0.820750  0.318390  1.0  0.7213
  C  C1365  1  0.923800  0.848610  0.330680  1.0  -0.1268
  C  C1366  1  0.921300  0.848350  0.352270  1.0  -0.0397
  C  C1367  1  0.374200  0.068560  0.000440  1.0  0.6784
  C  C1368  1  0.335300  0.086700  0.980620  1.0  -0.1384
  C  C1369  1  0.224600  0.100210  0.980340  1.0  -0.0647
  C  C1370  1  0.184300  0.117540  0.962770  1.0  0.0424
  C  C1371  1  0.257300  0.121230  0.945570  1.0  -0.0679
  C  C1372  1  0.370100  0.107780  0.945970  1.0  -0.125
  C  C1373  1  0.409200  0.090590  0.963410  1.0  -0.0311
  C  C1374  1  0.450400  0.113400  0.927750  1.0  0.6306
  C  C1375  1  0.702800  0.187100  0.883480  1.0  0.0012
  C  C1376  1  0.699200  0.205400  0.865680  1.0  -0.1194
  C  C1377  1  0.565300  0.166780  0.864860  1.0  0.173
  C  C1378  1  0.574000  0.205080  0.834200  1.0  0.1836
  C  C1379  1  0.662100  0.214700  0.820630  1.0  -0.2423
  C  C1380  1  0.630800  0.230080  0.802030  1.0  0.1845
  C  C1381  1  0.515900  0.234810  0.796450  1.0  -0.2174
  C  C1382  1  0.430100  0.224310  0.810180  1.0  0.1393
  C  C1383  1  0.456500  0.209480  0.829290  1.0  -0.1987
  C  C1384  1  0.214900  0.210820  0.810980  1.0  -0.1092
  C  C1385  1  0.119600  0.226190  0.803200  1.0  -0.0037
  C  C1386  1  0.268300  0.256540  0.794210  1.0  0.1093
  C  C1387  1  0.721200  0.243740  0.767070  1.0  -0.1133
  C  C1388  1  0.823500  0.255140  0.795590  1.0  0.1211
  C  C1389  1  0.823900  0.258240  0.761810  1.0  0.0339
  C  C1390  1  0.976900  0.320750  0.818390  1.0  0.7213
  C  C1391  1  0.923800  0.348610  0.830680  1.0  -0.1268
  C  C1392  1  0.921300  0.348350  0.852270  1.0  -0.0397
  C  C1393  1  0.625000  0.625000  0.569720  1.0  0.0364
  C  C1394  1  0.625000  0.625000  0.613390  1.0  0.0463
  C  C1395  1  0.625000  0.125000  0.069720  1.0  0.0364
  C  C1396  1  0.625000  0.125000  0.113390  1.0  0.0463
  C  C1397  1  0.125000  0.125000  0.569720  1.0  0.0364
  C  C1398  1  0.125000  0.125000  0.613390  1.0  0.0463
  C  C1399  1  0.125000  0.625000  0.069720  1.0  0.0364
  C  C1400  1  0.125000  0.625000  0.113390  1.0  0.0463
  C  C1401  1  0.125000  0.625000  0.180280  1.0  0.0376
  C  C1402  1  0.125000  0.625000  0.136610  1.0  0.0463
  C  C1403  1  0.125000  0.125000  0.680280  1.0  0.0376
  C  C1404  1  0.125000  0.125000  0.636610  1.0  0.0463
  C  C1405  1  0.625000  0.625000  0.680280  1.0  0.0376
  C  C1406  1  0.625000  0.625000  0.636610  1.0  0.0463
  C  C1407  1  0.625000  0.125000  0.180280  1.0  0.0376
  C  C1408  1  0.625000  0.125000  0.136610  1.0  0.0463
  C  C1409  1  0.375000  0.375000  0.430280  1.0  0.0376
  C  C1410  1  0.375000  0.375000  0.386610  1.0  0.0463
  C  C1411  1  0.375000  0.875000  0.930280  1.0  0.0376
  C  C1412  1  0.375000  0.875000  0.886610  1.0  0.0463
  C  C1413  1  0.875000  0.875000  0.430280  1.0  0.0376
  C  C1414  1  0.875000  0.875000  0.386610  1.0  0.0463
  C  C1415  1  0.875000  0.375000  0.930280  1.0  0.0376
  C  C1416  1  0.875000  0.375000  0.886610  1.0  0.0463
  C  C1417  1  0.875000  0.375000  0.819720  1.0  0.0364
  C  C1418  1  0.875000  0.375000  0.863390  1.0  0.0463
  C  C1419  1  0.875000  0.875000  0.319720  1.0  0.0364
  C  C1420  1  0.875000  0.875000  0.363390  1.0  0.0463
  C  C1421  1  0.375000  0.875000  0.819720  1.0  0.0364
  C  C1422  1  0.375000  0.875000  0.863390  1.0  0.0463
  C  C1423  1  0.375000  0.375000  0.319720  1.0  0.0364
  C  C1424  1  0.375000  0.375000  0.363390  1.0  0.0463
  N  N1425  1  0.878100  0.413020  0.632760  1.0  -0.331
  N  N1426  1  0.892700  0.442790  0.604040  1.0  0.0464
  N  N1427  1  0.190000  0.480350  0.555100  1.0  0.0102
  N  N1428  1  0.346900  0.504950  0.542820  1.0  -0.3802
  N  N1429  1  0.778700  0.491900  0.538750  1.0  0.0329
  N  N1430  1  0.612700  0.515410  0.529730  1.0  -0.3825
  N  N1431  1  0.878100  0.913020  0.132760  1.0  -0.331
  N  N1432  1  0.892700  0.942790  0.104040  1.0  0.0464
  N  N1433  1  0.190000  0.980350  0.055100  1.0  0.0102
  N  N1434  1  0.346900  0.004950  0.042820  1.0  -0.3802
  N  N1435  1  0.778700  0.991900  0.038750  1.0  0.0329
  N  N1436  1  0.612700  0.015410  0.029730  1.0  -0.3825
  N  N1437  1  0.378100  0.413020  0.132760  1.0  -0.331
  N  N1438  1  0.392700  0.442790  0.104040  1.0  0.0464
  N  N1439  1  0.690000  0.480350  0.055100  1.0  0.0102
  N  N1440  1  0.846900  0.504950  0.042820  1.0  -0.3802
  N  N1441  1  0.278700  0.491900  0.038750  1.0  0.0329
  N  N1442  1  0.112700  0.515410  0.029730  1.0  -0.3825
  N  N1443  1  0.378100  0.913020  0.632760  1.0  -0.331
  N  N1444  1  0.392700  0.942790  0.604040  1.0  0.0464
  N  N1445  1  0.690000  0.980350  0.555100  1.0  0.0102
  N  N1446  1  0.846900  0.004950  0.542820  1.0  -0.3802
  N  N1447  1  0.278700  0.991900  0.538750  1.0  0.0329
  N  N1448  1  0.112700  0.015410  0.529730  1.0  -0.3825
  N  N1449  1  0.871900  0.336980  0.632760  1.0  -0.3305
  N  N1450  1  0.857300  0.307210  0.604040  1.0  0.0464
  N  N1451  1  0.560000  0.269650  0.555100  1.0  0.0107
  N  N1452  1  0.403100  0.245050  0.542820  1.0  -0.379
  N  N1453  1  0.971300  0.258100  0.538750  1.0  0.0319
  N  N1454  1  0.137300  0.234590  0.529730  1.0  -0.3837
  N  N1455  1  0.871900  0.836980  0.132760  1.0  -0.3305
  N  N1456  1  0.857300  0.807210  0.104040  1.0  0.0464
  N  N1457  1  0.560000  0.769650  0.055100  1.0  0.0107
  N  N1458  1  0.403100  0.745050  0.042820  1.0  -0.379
  N  N1459  1  0.971300  0.758100  0.038750  1.0  0.0319
  N  N1460  1  0.137300  0.734590  0.029730  1.0  -0.3837
  N  N1461  1  0.371900  0.336980  0.132760  1.0  -0.3305
  N  N1462  1  0.357300  0.307210  0.104040  1.0  0.0464
  N  N1463  1  0.060000  0.269650  0.055100  1.0  0.0107
  N  N1464  1  0.903100  0.245050  0.042820  1.0  -0.379
  N  N1465  1  0.471300  0.258100  0.038750  1.0  0.0319
  N  N1466  1  0.637300  0.234590  0.029730  1.0  -0.3837
  N  N1467  1  0.371900  0.836980  0.632760  1.0  -0.3305
  N  N1468  1  0.357300  0.807210  0.604040  1.0  0.0464
  N  N1469  1  0.060000  0.769650  0.555100  1.0  0.0107
  N  N1470  1  0.903100  0.745050  0.542820  1.0  -0.379
  N  N1471  1  0.471300  0.758100  0.538750  1.0  0.0319
  N  N1472  1  0.637300  0.734590  0.529730  1.0  -0.3837
  N  N1473  1  0.871900  0.413020  0.117240  1.0  -0.3321
  N  N1474  1  0.857300  0.442790  0.145960  1.0  0.0478
  N  N1475  1  0.560000  0.480350  0.194900  1.0  0.0113
  N  N1476  1  0.403100  0.504950  0.207180  1.0  -0.3802
  N  N1477  1  0.971300  0.491900  0.211250  1.0  0.0331
  N  N1478  1  0.137300  0.515410  0.220270  1.0  -0.3836
  N  N1479  1  0.871900  0.913020  0.617240  1.0  -0.3321
  N  N1480  1  0.857300  0.942790  0.645960  1.0  0.0478
  N  N1481  1  0.560000  0.980350  0.694900  1.0  0.0113
  N  N1482  1  0.403100  0.004950  0.707180  1.0  -0.3802
  N  N1483  1  0.971300  0.991900  0.711250  1.0  0.0331
  N  N1484  1  0.137300  0.015410  0.720270  1.0  -0.3836
  N  N1485  1  0.371900  0.413020  0.617240  1.0  -0.3321
  N  N1486  1  0.357300  0.442790  0.645960  1.0  0.0478
  N  N1487  1  0.060000  0.480350  0.694900  1.0  0.0113
  N  N1488  1  0.903100  0.504950  0.707180  1.0  -0.3802
  N  N1489  1  0.471300  0.491900  0.711250  1.0  0.0331
  N  N1490  1  0.637300  0.515410  0.720270  1.0  -0.3836
  N  N1491  1  0.371900  0.913020  0.117240  1.0  -0.3321
  N  N1492  1  0.357300  0.942790  0.145960  1.0  0.0478
  N  N1493  1  0.060000  0.980350  0.194900  1.0  0.0113
  N  N1494  1  0.903100  0.004950  0.207180  1.0  -0.3802
  N  N1495  1  0.471300  0.991900  0.211250  1.0  0.0331
  N  N1496  1  0.637300  0.015410  0.220270  1.0  -0.3836
  N  N1497  1  0.878100  0.336980  0.117240  1.0  -0.3312
  N  N1498  1  0.892700  0.307210  0.145960  1.0  0.0462
  N  N1499  1  0.190000  0.269650  0.194900  1.0  0.01
  N  N1500  1  0.346900  0.245050  0.207180  1.0  -0.3792
  N  N1501  1  0.778700  0.258100  0.211250  1.0  0.0328
  N  N1502  1  0.612700  0.234590  0.220270  1.0  -0.3839
  N  N1503  1  0.878100  0.836980  0.617240  1.0  -0.3312
  N  N1504  1  0.892700  0.807210  0.645960  1.0  0.0462
  N  N1505  1  0.190000  0.769650  0.694900  1.0  0.01
  N  N1506  1  0.346900  0.745050  0.707180  1.0  -0.3792
  N  N1507  1  0.778700  0.758100  0.711250  1.0  0.0328
  N  N1508  1  0.612700  0.734590  0.720270  1.0  -0.3839
  N  N1509  1  0.378100  0.336980  0.617240  1.0  -0.3312
  N  N1510  1  0.392700  0.307210  0.645960  1.0  0.0462
  N  N1511  1  0.690000  0.269650  0.694900  1.0  0.01
  N  N1512  1  0.846900  0.245050  0.707180  1.0  -0.3792
  N  N1513  1  0.278700  0.258100  0.711250  1.0  0.0328
  N  N1514  1  0.112700  0.234590  0.720270  1.0  -0.3839
  N  N1515  1  0.378100  0.836980  0.117240  1.0  -0.3312
  N  N1516  1  0.392700  0.807210  0.145960  1.0  0.0462
  N  N1517  1  0.690000  0.769650  0.194900  1.0  0.01
  N  N1518  1  0.846900  0.745050  0.207180  1.0  -0.3792
  N  N1519  1  0.278700  0.758100  0.211250  1.0  0.0328
  N  N1520  1  0.112700  0.734590  0.220270  1.0  -0.3839
  N  N1521  1  0.121900  0.586980  0.367240  1.0  -0.3317
  N  N1522  1  0.107300  0.557210  0.395960  1.0  0.047
  N  N1523  1  0.810000  0.519650  0.444900  1.0  0.0111
  N  N1524  1  0.653100  0.495050  0.457180  1.0  -0.3791
  N  N1525  1  0.221300  0.508100  0.461250  1.0  0.0324
  N  N1526  1  0.387300  0.484590  0.470270  1.0  -0.3839
  N  N1527  1  0.121900  0.086980  0.867240  1.0  -0.3317
  N  N1528  1  0.107300  0.057210  0.895960  1.0  0.047
  N  N1529  1  0.810000  0.019650  0.944900  1.0  0.0111
  N  N1530  1  0.653100  0.995050  0.957180  1.0  -0.3791
  N  N1531  1  0.221300  0.008100  0.961250  1.0  0.0324
  N  N1532  1  0.387300  0.984590  0.970270  1.0  -0.3839
  N  N1533  1  0.621900  0.586980  0.867240  1.0  -0.3317
  N  N1534  1  0.607300  0.557210  0.895960  1.0  0.047
  N  N1535  1  0.310000  0.519650  0.944900  1.0  0.0111
  N  N1536  1  0.153100  0.495050  0.957180  1.0  -0.3791
  N  N1537  1  0.721300  0.508100  0.961250  1.0  0.0324
  N  N1538  1  0.887300  0.484590  0.970270  1.0  -0.3839
  N  N1539  1  0.621900  0.086980  0.367240  1.0  -0.3317
  N  N1540  1  0.607300  0.057210  0.395960  1.0  0.047
  N  N1541  1  0.310000  0.019650  0.444900  1.0  0.0111
  N  N1542  1  0.153100  0.995050  0.457180  1.0  -0.3791
  N  N1543  1  0.721300  0.008100  0.461250  1.0  0.0324
  N  N1544  1  0.887300  0.984590  0.470270  1.0  -0.3839
  N  N1545  1  0.128100  0.663020  0.367240  1.0  -0.3318
  N  N1546  1  0.142700  0.692790  0.395960  1.0  0.0468
  N  N1547  1  0.440000  0.730350  0.444900  1.0  0.0104
  N  N1548  1  0.596900  0.754950  0.457180  1.0  -0.38
  N  N1549  1  0.028700  0.741900  0.461250  1.0  0.0332
  N  N1550  1  0.862700  0.765410  0.470270  1.0  -0.3827
  N  N1551  1  0.128100  0.163020  0.867240  1.0  -0.3318
  N  N1552  1  0.142700  0.192790  0.895960  1.0  0.0468
  N  N1553  1  0.440000  0.230350  0.944900  1.0  0.0104
  N  N1554  1  0.596900  0.254950  0.957180  1.0  -0.38
  N  N1555  1  0.028700  0.241900  0.961250  1.0  0.0332
  N  N1556  1  0.862700  0.265410  0.970270  1.0  -0.3827
  N  N1557  1  0.628100  0.663020  0.867240  1.0  -0.3318
  N  N1558  1  0.642700  0.692790  0.895960  1.0  0.0468
  N  N1559  1  0.940000  0.730350  0.944900  1.0  0.0104
  N  N1560  1  0.096900  0.754950  0.957180  1.0  -0.38
  N  N1561  1  0.528700  0.741900  0.961250  1.0  0.0332
  N  N1562  1  0.362700  0.765410  0.970270  1.0  -0.3827
  N  N1563  1  0.628100  0.163020  0.367240  1.0  -0.3318
  N  N1564  1  0.642700  0.192790  0.395960  1.0  0.0468
  N  N1565  1  0.940000  0.230350  0.444900  1.0  0.0104
  N  N1566  1  0.096900  0.254950  0.457180  1.0  -0.38
  N  N1567  1  0.528700  0.241900  0.461250  1.0  0.0332
  N  N1568  1  0.362700  0.265410  0.470270  1.0  -0.3827
  N  N1569  1  0.128100  0.586980  0.882760  1.0  -0.33
  N  N1570  1  0.142700  0.557210  0.854040  1.0  0.0456
  N  N1571  1  0.440000  0.519650  0.805100  1.0  0.0098
  N  N1572  1  0.596900  0.495050  0.792820  1.0  -0.3795
  N  N1573  1  0.028700  0.508100  0.788750  1.0  0.0324
  N  N1574  1  0.862700  0.484590  0.779730  1.0  -0.3834
  N  N1575  1  0.128100  0.086980  0.382760  1.0  -0.33
  N  N1576  1  0.142700  0.057210  0.354040  1.0  0.0456
  N  N1577  1  0.440000  0.019650  0.305100  1.0  0.0098
  N  N1578  1  0.596900  0.995050  0.292820  1.0  -0.3795
  N  N1579  1  0.028700  0.008100  0.288750  1.0  0.0324
  N  N1580  1  0.862700  0.984590  0.279730  1.0  -0.3834
  N  N1581  1  0.628100  0.586980  0.382760  1.0  -0.33
  N  N1582  1  0.642700  0.557210  0.354040  1.0  0.0456
  N  N1583  1  0.940000  0.519650  0.305100  1.0  0.0098
  N  N1584  1  0.096900  0.495050  0.292820  1.0  -0.3795
  N  N1585  1  0.528700  0.508100  0.288750  1.0  0.0324
  N  N1586  1  0.362700  0.484590  0.279730  1.0  -0.3834
  N  N1587  1  0.628100  0.086980  0.882760  1.0  -0.33
  N  N1588  1  0.642700  0.057210  0.854040  1.0  0.0456
  N  N1589  1  0.940000  0.019650  0.805100  1.0  0.0098
  N  N1590  1  0.096900  0.995050  0.792820  1.0  -0.3795
  N  N1591  1  0.528700  0.008100  0.788750  1.0  0.0324
  N  N1592  1  0.362700  0.984590  0.779730  1.0  -0.3834
  N  N1593  1  0.121900  0.663020  0.882760  1.0  -0.3313
  N  N1594  1  0.107300  0.692790  0.854040  1.0  0.0473
  N  N1595  1  0.810000  0.730350  0.805100  1.0  0.011
  N  N1596  1  0.653100  0.754950  0.792820  1.0  -0.3802
  N  N1597  1  0.221300  0.741900  0.788750  1.0  0.0327
  N  N1598  1  0.387300  0.765410  0.779730  1.0  -0.3837
  N  N1599  1  0.121900  0.163020  0.382760  1.0  -0.3313
  N  N1600  1  0.107300  0.192790  0.354040  1.0  0.0473
  N  N1601  1  0.810000  0.230350  0.305100  1.0  0.011
  N  N1602  1  0.653100  0.254950  0.292820  1.0  -0.3802
  N  N1603  1  0.221300  0.241900  0.288750  1.0  0.0327
  N  N1604  1  0.387300  0.265410  0.279730  1.0  -0.3837
  N  N1605  1  0.621900  0.663020  0.382760  1.0  -0.3313
  N  N1606  1  0.607300  0.692790  0.354040  1.0  0.0473
  N  N1607  1  0.310000  0.730350  0.305100  1.0  0.011
  N  N1608  1  0.153100  0.754950  0.292820  1.0  -0.3802
  N  N1609  1  0.721300  0.741900  0.288750  1.0  0.0327
  N  N1610  1  0.887300  0.765410  0.279730  1.0  -0.3837
  N  N1611  1  0.621900  0.163020  0.882760  1.0  -0.3313
  N  N1612  1  0.607300  0.192790  0.854040  1.0  0.0473
  N  N1613  1  0.310000  0.230350  0.805100  1.0  0.011
  N  N1614  1  0.153100  0.254950  0.792820  1.0  -0.3802
  N  N1615  1  0.721300  0.241900  0.788750  1.0  0.0327
  N  N1616  1  0.887300  0.265410  0.779730  1.0  -0.3837
  O  O1617  1  0.191300  0.316840  0.765590  1.0  -0.6057
  O  O1618  1  0.024400  0.306330  0.750310  1.0  -0.5848
  O  O1619  1  0.956100  0.346380  0.676900  1.0  -0.5776
  O  O1620  1  0.072500  0.384800  0.664460  1.0  -0.6182
  O  O1621  1  0.509900  0.543200  0.576620  1.0  -0.5776
  O  O1622  1  0.496400  0.577490  0.549540  1.0  -0.5899
  O  O1623  1  0.191300  0.816840  0.265590  1.0  -0.6057
  O  O1624  1  0.024400  0.806330  0.250310  1.0  -0.5848
  O  O1625  1  0.956100  0.846380  0.176900  1.0  -0.5776
  O  O1626  1  0.072500  0.884800  0.164460  1.0  -0.6182
  O  O1627  1  0.509900  0.043200  0.076620  1.0  -0.5776
  O  O1628  1  0.496400  0.077490  0.049540  1.0  -0.5899
  O  O1629  1  0.691300  0.316840  0.265590  1.0  -0.6057
  O  O1630  1  0.524400  0.306330  0.250310  1.0  -0.5848
  O  O1631  1  0.456100  0.346380  0.176900  1.0  -0.5776
  O  O1632  1  0.572500  0.384800  0.164460  1.0  -0.6182
  O  O1633  1  0.009900  0.543200  0.076620  1.0  -0.5776
  O  O1634  1  0.996400  0.577490  0.049540  1.0  -0.5899
  O  O1635  1  0.691300  0.816840  0.765590  1.0  -0.6057
  O  O1636  1  0.524400  0.806330  0.750310  1.0  -0.5848
  O  O1637  1  0.456100  0.846380  0.676900  1.0  -0.5776
  O  O1638  1  0.572500  0.884800  0.664460  1.0  -0.6182
  O  O1639  1  0.009900  0.043200  0.576620  1.0  -0.5776
  O  O1640  1  0.996400  0.077490  0.549540  1.0  -0.5899
  O  O1641  1  0.558700  0.433160  0.765590  1.0  -0.6091
  O  O1642  1  0.725600  0.443670  0.750310  1.0  -0.5834
  O  O1643  1  0.793900  0.403620  0.676900  1.0  -0.5776
  O  O1644  1  0.677500  0.365200  0.664460  1.0  -0.6182
  O  O1645  1  0.240100  0.206800  0.576620  1.0  -0.576
  O  O1646  1  0.253600  0.172510  0.549540  1.0  -0.5884
  O  O1647  1  0.558700  0.933160  0.265590  1.0  -0.6091
  O  O1648  1  0.725600  0.943670  0.250310  1.0  -0.5834
  O  O1649  1  0.793900  0.903620  0.176900  1.0  -0.5776
  O  O1650  1  0.677500  0.865200  0.164460  1.0  -0.6182
  O  O1651  1  0.240100  0.706800  0.076620  1.0  -0.576
  O  O1652  1  0.253600  0.672510  0.049540  1.0  -0.5884
  O  O1653  1  0.058700  0.433160  0.265590  1.0  -0.6091
  O  O1654  1  0.225600  0.443670  0.250310  1.0  -0.5834
  O  O1655  1  0.293900  0.403620  0.176900  1.0  -0.5776
  O  O1656  1  0.177500  0.365200  0.164460  1.0  -0.6182
  O  O1657  1  0.740100  0.206800  0.076620  1.0  -0.576
  O  O1658  1  0.753600  0.172510  0.049540  1.0  -0.5884
  O  O1659  1  0.058700  0.933160  0.765590  1.0  -0.6091
  O  O1660  1  0.225600  0.943670  0.750310  1.0  -0.5834
  O  O1661  1  0.293900  0.903620  0.676900  1.0  -0.5776
  O  O1662  1  0.177500  0.865200  0.664460  1.0  -0.6182
  O  O1663  1  0.740100  0.706800  0.576620  1.0  -0.576
  O  O1664  1  0.753600  0.672510  0.549540  1.0  -0.5884
  O  O1665  1  0.558700  0.316840  0.984410  1.0  -0.6074
  O  O1666  1  0.725600  0.306330  0.999690  1.0  -0.5845
  O  O1667  1  0.793900  0.346380  0.073100  1.0  -0.5777
  O  O1668  1  0.677500  0.384800  0.085540  1.0  -0.6177
  O  O1669  1  0.240100  0.543200  0.173380  1.0  -0.5764
  O  O1670  1  0.253600  0.577490  0.200460  1.0  -0.5884
  O  O1671  1  0.558700  0.816840  0.484410  1.0  -0.6074
  O  O1672  1  0.725600  0.806330  0.499690  1.0  -0.5845
  O  O1673  1  0.793900  0.846380  0.573100  1.0  -0.5777
  O  O1674  1  0.677500  0.884800  0.585540  1.0  -0.6177
  O  O1675  1  0.240100  0.043200  0.673380  1.0  -0.5764
  O  O1676  1  0.253600  0.077490  0.700460  1.0  -0.5884
  O  O1677  1  0.058700  0.316840  0.484410  1.0  -0.6074
  O  O1678  1  0.225600  0.306330  0.499690  1.0  -0.5845
  O  O1679  1  0.293900  0.346380  0.573100  1.0  -0.5777
  O  O1680  1  0.177500  0.384800  0.585540  1.0  -0.6177
  O  O1681  1  0.740100  0.543200  0.673380  1.0  -0.5764
  O  O1682  1  0.753600  0.577490  0.700460  1.0  -0.5884
  O  O1683  1  0.058700  0.816840  0.984410  1.0  -0.6074
  O  O1684  1  0.225600  0.806330  0.999690  1.0  -0.5845
  O  O1685  1  0.293900  0.846380  0.073100  1.0  -0.5777
  O  O1686  1  0.177500  0.884800  0.085540  1.0  -0.6177
  O  O1687  1  0.740100  0.043200  0.173380  1.0  -0.5764
  O  O1688  1  0.753600  0.077490  0.200460  1.0  -0.5884
  O  O1689  1  0.191300  0.433160  0.984410  1.0  -0.6066
  O  O1690  1  0.024400  0.443670  0.999690  1.0  -0.5831
  O  O1691  1  0.956100  0.403620  0.073100  1.0  -0.5775
  O  O1692  1  0.072500  0.365200  0.085540  1.0  -0.6183
  O  O1693  1  0.509900  0.206800  0.173380  1.0  -0.576
  O  O1694  1  0.496400  0.172510  0.200460  1.0  -0.5898
  O  O1695  1  0.191300  0.933160  0.484410  1.0  -0.6066
  O  O1696  1  0.024400  0.943670  0.499690  1.0  -0.5831
  O  O1697  1  0.956100  0.903620  0.573100  1.0  -0.5775
  O  O1698  1  0.072500  0.865200  0.585540  1.0  -0.6183
  O  O1699  1  0.509900  0.706800  0.673380  1.0  -0.576
  O  O1700  1  0.496400  0.672510  0.700460  1.0  -0.5898
  O  O1701  1  0.691300  0.433160  0.484410  1.0  -0.6066
  O  O1702  1  0.524400  0.443670  0.499690  1.0  -0.5831
  O  O1703  1  0.456100  0.403620  0.573100  1.0  -0.5775
  O  O1704  1  0.572500  0.365200  0.585540  1.0  -0.6183
  O  O1705  1  0.009900  0.206800  0.673380  1.0  -0.576
  O  O1706  1  0.996400  0.172510  0.700460  1.0  -0.5898
  O  O1707  1  0.691300  0.933160  0.984410  1.0  -0.6066
  O  O1708  1  0.524400  0.943670  0.999690  1.0  -0.5831
  O  O1709  1  0.456100  0.903620  0.073100  1.0  -0.5775
  O  O1710  1  0.572500  0.865200  0.085540  1.0  -0.6183
  O  O1711  1  0.009900  0.706800  0.173380  1.0  -0.576
  O  O1712  1  0.996400  0.672510  0.200460  1.0  -0.5898
  O  O1713  1  0.808700  0.683160  0.234410  1.0  -0.6069
  O  O1714  1  0.975600  0.693670  0.249690  1.0  -0.5833
  O  O1715  1  0.043900  0.653620  0.323100  1.0  -0.5776
  O  O1716  1  0.927500  0.615200  0.335540  1.0  -0.6173
  O  O1717  1  0.490100  0.456800  0.423380  1.0  -0.5765
  O  O1718  1  0.503600  0.422510  0.450460  1.0  -0.5891
  O  O1719  1  0.808700  0.183160  0.734410  1.0  -0.6069
  O  O1720  1  0.975600  0.193670  0.749690  1.0  -0.5833
  O  O1721  1  0.043900  0.153620  0.823100  1.0  -0.5776
  O  O1722  1  0.927500  0.115200  0.835540  1.0  -0.6173
  O  O1723  1  0.490100  0.956800  0.923380  1.0  -0.5765
  O  O1724  1  0.503600  0.922510  0.950460  1.0  -0.5891
  O  O1725  1  0.308700  0.683160  0.734410  1.0  -0.6069
  O  O1726  1  0.475600  0.693670  0.749690  1.0  -0.5833
  O  O1727  1  0.543900  0.653620  0.823100  1.0  -0.5776
  O  O1728  1  0.427500  0.615200  0.835540  1.0  -0.6173
  O  O1729  1  0.990100  0.456800  0.923380  1.0  -0.5765
  O  O1730  1  0.003600  0.422510  0.950460  1.0  -0.5891
  O  O1731  1  0.308700  0.183160  0.234410  1.0  -0.6069
  O  O1732  1  0.475600  0.193670  0.249690  1.0  -0.5833
  O  O1733  1  0.543900  0.153620  0.323100  1.0  -0.5776
  O  O1734  1  0.427500  0.115200  0.335540  1.0  -0.6173
  O  O1735  1  0.990100  0.956800  0.423380  1.0  -0.5765
  O  O1736  1  0.003600  0.922510  0.450460  1.0  -0.5891
  O  O1737  1  0.441300  0.566840  0.234410  1.0  -0.6081
  O  O1738  1  0.274400  0.556330  0.249690  1.0  -0.585
  O  O1739  1  0.206100  0.596380  0.323100  1.0  -0.5777
  O  O1740  1  0.322500  0.634800  0.335540  1.0  -0.6185
  O  O1741  1  0.759900  0.793200  0.423380  1.0  -0.5766
  O  O1742  1  0.746400  0.827490  0.450460  1.0  -0.589
  O  O1743  1  0.441300  0.066840  0.734410  1.0  -0.6081
  O  O1744  1  0.274400  0.056330  0.749690  1.0  -0.585
  O  O1745  1  0.206100  0.096380  0.823100  1.0  -0.5777
  O  O1746  1  0.322500  0.134800  0.835540  1.0  -0.6185
  O  O1747  1  0.759900  0.293200  0.923380  1.0  -0.5766
  O  O1748  1  0.746400  0.327490  0.950460  1.0  -0.589
  O  O1749  1  0.941300  0.566840  0.734410  1.0  -0.6081
  O  O1750  1  0.774400  0.556330  0.749690  1.0  -0.585
  O  O1751  1  0.706100  0.596380  0.823100  1.0  -0.5777
  O  O1752  1  0.822500  0.634800  0.835540  1.0  -0.6185
  O  O1753  1  0.259900  0.793200  0.923380  1.0  -0.5766
  O  O1754  1  0.246400  0.827490  0.950460  1.0  -0.589
  O  O1755  1  0.941300  0.066840  0.234410  1.0  -0.6081
  O  O1756  1  0.774400  0.056330  0.249690  1.0  -0.585
  O  O1757  1  0.706100  0.096380  0.323100  1.0  -0.5777
  O  O1758  1  0.822500  0.134800  0.335540  1.0  -0.6185
  O  O1759  1  0.259900  0.293200  0.423380  1.0  -0.5766
  O  O1760  1  0.246400  0.327490  0.450460  1.0  -0.589
  O  O1761  1  0.441300  0.683160  0.015590  1.0  -0.6064
  O  O1762  1  0.274400  0.693670  0.000310  1.0  -0.5835
  O  O1763  1  0.206100  0.653620  0.926900  1.0  -0.5775
  O  O1764  1  0.322500  0.615200  0.914460  1.0  -0.6187
  O  O1765  1  0.759900  0.456800  0.826620  1.0  -0.5761
  O  O1766  1  0.746400  0.422510  0.799540  1.0  -0.5896
  O  O1767  1  0.441300  0.183160  0.515590  1.0  -0.6064
  O  O1768  1  0.274400  0.193670  0.500310  1.0  -0.5835
  O  O1769  1  0.206100  0.153620  0.426900  1.0  -0.5775
  O  O1770  1  0.322500  0.115200  0.414460  1.0  -0.6187
  O  O1771  1  0.759900  0.956800  0.326620  1.0  -0.5761
  O  O1772  1  0.746400  0.922510  0.299540  1.0  -0.5896
  O  O1773  1  0.941300  0.683160  0.515590  1.0  -0.6064
  O  O1774  1  0.774400  0.693670  0.500310  1.0  -0.5835
  O  O1775  1  0.706100  0.653620  0.426900  1.0  -0.5775
  O  O1776  1  0.822500  0.615200  0.414460  1.0  -0.6187
  O  O1777  1  0.259900  0.456800  0.326620  1.0  -0.5761
  O  O1778  1  0.246400  0.422510  0.299540  1.0  -0.5896
  O  O1779  1  0.941300  0.183160  0.015590  1.0  -0.6064
  O  O1780  1  0.774400  0.193670  0.000310  1.0  -0.5835
  O  O1781  1  0.706100  0.153620  0.926900  1.0  -0.5775
  O  O1782  1  0.822500  0.115200  0.914460  1.0  -0.6187
  O  O1783  1  0.259900  0.956800  0.826620  1.0  -0.5761
  O  O1784  1  0.246400  0.922510  0.799540  1.0  -0.5896
  O  O1785  1  0.808700  0.566840  0.015590  1.0  -0.6077
  O  O1786  1  0.975600  0.556330  0.000310  1.0  -0.5841
  O  O1787  1  0.043900  0.596380  0.926900  1.0  -0.5776
  O  O1788  1  0.927500  0.634800  0.914460  1.0  -0.6179
  O  O1789  1  0.490100  0.793200  0.826620  1.0  -0.5773
  O  O1790  1  0.503600  0.827490  0.799540  1.0  -0.5893
  O  O1791  1  0.808700  0.066840  0.515590  1.0  -0.6077
  O  O1792  1  0.975600  0.056330  0.500310  1.0  -0.5841
  O  O1793  1  0.043900  0.096380  0.426900  1.0  -0.5776
  O  O1794  1  0.927500  0.134800  0.414460  1.0  -0.6179
  O  O1795  1  0.490100  0.293200  0.326620  1.0  -0.5773
  O  O1796  1  0.503600  0.327490  0.299540  1.0  -0.5893
  O  O1797  1  0.308700  0.566840  0.515590  1.0  -0.6077
  O  O1798  1  0.475600  0.556330  0.500310  1.0  -0.5841
  O  O1799  1  0.543900  0.596380  0.426900  1.0  -0.5776
  O  O1800  1  0.427500  0.634800  0.414460  1.0  -0.6179
  O  O1801  1  0.990100  0.793200  0.326620  1.0  -0.5773
  O  O1802  1  0.003600  0.827490  0.299540  1.0  -0.5893
  O  O1803  1  0.308700  0.066840  0.015590  1.0  -0.6077
  O  O1804  1  0.475600  0.056330  0.000310  1.0  -0.5841
  O  O1805  1  0.543900  0.096380  0.926900  1.0  -0.5776
  O  O1806  1  0.427500  0.134800  0.914460  1.0  -0.6179
  O  O1807  1  0.990100  0.293200  0.826620  1.0  -0.5773
  O  O1808  1  0.003600  0.327490  0.799540  1.0  -0.5893
