# generated using pymatgen
data_YH18(C6O)4
_symmetry_space_group_name_H-M   'P 1'
_cell_length_a   51.55000000
_cell_length_b   51.55000000
_cell_length_c   51.55000000
_cell_angle_alpha   90.00000000
_cell_angle_beta   90.00000000
_cell_angle_gamma   90.00000000
_symmetry_Int_Tables_number   1
_chemical_formula_structural   YH18(C6O)4
_chemical_formula_sum   'Y96 H1728 C2304 O384'
_cell_volume   136989.09887500
_cell_formula_units_Z   96
loop_
 _symmetry_equiv_pos_site_id
 _symmetry_equiv_pos_as_xyz
  1  'x, y, z'
loop_
 _atom_site_type_symbol
 _atom_site_label
 _atom_site_symmetry_multiplicity
 _atom_site_fract_x
 _atom_site_fract_y
 _atom_site_fract_z
 _atom_site_occupancy
 _atom_site_charge
  Y  Y1  1  0.233110  0.500000  0.186540  1.0  2.0125
  Y  Y2  1  0.233110  0.000000  0.686540  1.0  2.0125
  Y  Y3  1  0.733110  0.500000  0.686540  1.0  2.0125
  Y  Y4  1  0.733110  0.000000  0.186540  1.0  2.0125
  Y  Y5  1  0.766890  0.500000  0.186540  1.0  2.0135
  Y  Y6  1  0.766890  0.000000  0.686540  1.0  2.0135
  Y  Y7  1  0.266890  0.500000  0.686540  1.0  2.0135
  Y  Y8  1  0.266890  0.000000  0.186540  1.0  2.0135
  Y  Y9  1  0.766890  0.500000  0.813460  1.0  2.0092
  Y  Y10  1  0.766890  0.000000  0.313460  1.0  2.0092
  Y  Y11  1  0.266890  0.500000  0.313460  1.0  2.0092
  Y  Y12  1  0.266890  0.000000  0.813460  1.0  2.0092
  Y  Y13  1  0.233110  0.500000  0.813460  1.0  2.0083
  Y  Y14  1  0.233110  0.000000  0.313460  1.0  2.0083
  Y  Y15  1  0.733110  0.500000  0.313460  1.0  2.0083
  Y  Y16  1  0.733110  0.000000  0.813460  1.0  2.0083
  Y  Y17  1  0.186540  0.233110  0.500000  1.0  2.0202
  Y  Y18  1  0.186540  0.733110  0.000000  1.0  2.0202
  Y  Y19  1  0.686540  0.233110  0.000000  1.0  2.0202
  Y  Y20  1  0.686540  0.733110  0.500000  1.0  2.0202
  Y  Y21  1  0.186540  0.766890  0.500000  1.0  2.0203
  Y  Y22  1  0.186540  0.266890  0.000000  1.0  2.0203
  Y  Y23  1  0.686540  0.766890  0.000000  1.0  2.0203
  Y  Y24  1  0.686540  0.266890  0.500000  1.0  2.0203
  Y  Y25  1  0.813460  0.766890  0.500000  1.0  2.0172
  Y  Y26  1  0.813460  0.266890  0.000000  1.0  2.0172
  Y  Y27  1  0.313460  0.766890  0.000000  1.0  2.0172
  Y  Y28  1  0.313460  0.266890  0.500000  1.0  2.0172
  Y  Y29  1  0.813460  0.233110  0.500000  1.0  2.0171
  Y  Y30  1  0.813460  0.733110  0.000000  1.0  2.0171
  Y  Y31  1  0.313460  0.233110  0.000000  1.0  2.0171
  Y  Y32  1  0.313460  0.733110  0.500000  1.0  2.0171
  Y  Y33  1  0.500000  0.186540  0.233110  1.0  2.0189
  Y  Y34  1  0.500000  0.686540  0.733110  1.0  2.0189
  Y  Y35  1  0.000000  0.186540  0.733110  1.0  2.0189
  Y  Y36  1  0.000000  0.686540  0.233110  1.0  2.0189
  Y  Y37  1  0.500000  0.186540  0.766890  1.0  2.0189
  Y  Y38  1  0.500000  0.686540  0.266890  1.0  2.0189
  Y  Y39  1  0.000000  0.186540  0.266890  1.0  2.0189
  Y  Y40  1  0.000000  0.686540  0.766890  1.0  2.0189
  Y  Y41  1  0.500000  0.813460  0.766890  1.0  2.0168
  Y  Y42  1  0.500000  0.313460  0.266890  1.0  2.0168
  Y  Y43  1  0.000000  0.813460  0.266890  1.0  2.0168
  Y  Y44  1  0.000000  0.313460  0.766890  1.0  2.0168
  Y  Y45  1  0.500000  0.813460  0.233110  1.0  2.0169
  Y  Y46  1  0.500000  0.313460  0.733110  1.0  2.0169
  Y  Y47  1  0.000000  0.813460  0.733110  1.0  2.0169
  Y  Y48  1  0.000000  0.313460  0.233110  1.0  2.0169
  Y  Y49  1  0.000000  0.733110  0.313460  1.0  2.0084
  Y  Y50  1  0.000000  0.233110  0.813460  1.0  2.0084
  Y  Y51  1  0.500000  0.733110  0.813460  1.0  2.0084
  Y  Y52  1  0.500000  0.233110  0.313460  1.0  2.0084
  Y  Y53  1  0.000000  0.266890  0.313460  1.0  2.0086
  Y  Y54  1  0.000000  0.766890  0.813460  1.0  2.0086
  Y  Y55  1  0.500000  0.266890  0.813460  1.0  2.0086
  Y  Y56  1  0.500000  0.766890  0.313460  1.0  2.0086
  Y  Y57  1  0.000000  0.266890  0.686540  1.0  2.0128
  Y  Y58  1  0.000000  0.766890  0.186540  1.0  2.0128
  Y  Y59  1  0.500000  0.266890  0.186540  1.0  2.0128
  Y  Y60  1  0.500000  0.766890  0.686540  1.0  2.0128
  Y  Y61  1  0.000000  0.733110  0.686540  1.0  2.0126
  Y  Y62  1  0.000000  0.233110  0.186540  1.0  2.0126
  Y  Y63  1  0.500000  0.733110  0.186540  1.0  2.0126
  Y  Y64  1  0.500000  0.233110  0.686540  1.0  2.0126
  Y  Y65  1  0.733110  0.686540  0.000000  1.0  2.0191
  Y  Y66  1  0.733110  0.186540  0.500000  1.0  2.0191
  Y  Y67  1  0.233110  0.686540  0.500000  1.0  2.0191
  Y  Y68  1  0.233110  0.186540  0.000000  1.0  2.0191
  Y  Y69  1  0.266890  0.686540  0.000000  1.0  2.0203
  Y  Y70  1  0.266890  0.186540  0.500000  1.0  2.0203
  Y  Y71  1  0.766890  0.686540  0.500000  1.0  2.0203
  Y  Y72  1  0.766890  0.186540  0.000000  1.0  2.0203
  Y  Y73  1  0.266890  0.313460  0.000000  1.0  2.0183
  Y  Y74  1  0.266890  0.813460  0.500000  1.0  2.0183
  Y  Y75  1  0.766890  0.313460  0.500000  1.0  2.0183
  Y  Y76  1  0.766890  0.813460  0.000000  1.0  2.0183
  Y  Y77  1  0.733110  0.313460  0.000000  1.0  2.0172
  Y  Y78  1  0.733110  0.813460  0.500000  1.0  2.0172
  Y  Y79  1  0.233110  0.313460  0.500000  1.0  2.0172
  Y  Y80  1  0.233110  0.813460  0.000000  1.0  2.0172
  Y  Y81  1  0.686540  0.000000  0.266890  1.0  2.0207
  Y  Y82  1  0.686540  0.500000  0.766890  1.0  2.0207
  Y  Y83  1  0.186540  0.000000  0.766890  1.0  2.0207
  Y  Y84  1  0.186540  0.500000  0.266890  1.0  2.0207
  Y  Y85  1  0.686540  0.000000  0.733110  1.0  2.0207
  Y  Y86  1  0.686540  0.500000  0.233110  1.0  2.0207
  Y  Y87  1  0.186540  0.000000  0.233110  1.0  2.0207
  Y  Y88  1  0.186540  0.500000  0.733110  1.0  2.0207
  Y  Y89  1  0.313460  0.000000  0.733110  1.0  2.0176
  Y  Y90  1  0.313460  0.500000  0.233110  1.0  2.0176
  Y  Y91  1  0.813460  0.000000  0.233110  1.0  2.0176
  Y  Y92  1  0.813460  0.500000  0.733110  1.0  2.0176
  Y  Y93  1  0.313460  0.000000  0.266890  1.0  2.0176
  Y  Y94  1  0.313460  0.500000  0.766890  1.0  2.0176
  Y  Y95  1  0.813460  0.000000  0.766890  1.0  2.0176
  Y  Y96  1  0.813460  0.500000  0.266890  1.0  2.0176
  H  H97  1  0.327800  0.559800  0.196100  1.0  0.0791
  H  H98  1  0.282100  0.609500  0.129300  1.0  0.098
  H  H99  1  0.341700  0.609200  0.231500  1.0  0.0918
  H  H100  1  0.323600  0.629100  0.216000  1.0  0.0824
  H  H101  1  0.352700  0.637100  0.223300  1.0  0.076
  H  H102  1  0.373500  0.588300  0.170700  1.0  0.0888
  H  H103  1  0.367800  0.575100  0.198200  1.0  0.0752
  H  H104  1  0.388800  0.597800  0.195900  1.0  0.0841
  H  H105  1  0.265800  0.564300  0.151800  1.0  0.23
  H  H106  1  0.327800  0.059800  0.696100  1.0  0.0791
  H  H107  1  0.282100  0.109500  0.629300  1.0  0.098
  H  H108  1  0.341700  0.109200  0.731500  1.0  0.0918
  H  H109  1  0.323600  0.129100  0.716000  1.0  0.0824
  H  H110  1  0.352700  0.137100  0.723300  1.0  0.076
  H  H111  1  0.373500  0.088300  0.670700  1.0  0.0888
  H  H112  1  0.367800  0.075100  0.698200  1.0  0.0752
  H  H113  1  0.388800  0.097800  0.695900  1.0  0.0841
  H  H114  1  0.265800  0.064300  0.651800  1.0  0.23
  H  H115  1  0.827800  0.559800  0.696100  1.0  0.0791
  H  H116  1  0.782100  0.609500  0.629300  1.0  0.098
  H  H117  1  0.841700  0.609200  0.731500  1.0  0.0918
  H  H118  1  0.823600  0.629100  0.716000  1.0  0.0824
  H  H119  1  0.852700  0.637100  0.723300  1.0  0.076
  H  H120  1  0.873500  0.588300  0.670700  1.0  0.0886
  H  H121  1  0.867800  0.575100  0.698200  1.0  0.0752
  H  H122  1  0.888800  0.597800  0.695900  1.0  0.0841
  H  H123  1  0.765800  0.564300  0.651800  1.0  0.23
  H  H124  1  0.827800  0.059800  0.196100  1.0  0.0791
  H  H125  1  0.782100  0.109500  0.129300  1.0  0.098
  H  H126  1  0.841700  0.109200  0.231500  1.0  0.0918
  H  H127  1  0.823600  0.129100  0.216000  1.0  0.0824
  H  H128  1  0.852700  0.137100  0.223300  1.0  0.076
  H  H129  1  0.873500  0.088300  0.170700  1.0  0.0886
  H  H130  1  0.867800  0.075100  0.198200  1.0  0.0752
  H  H131  1  0.888800  0.097800  0.195900  1.0  0.0841
  H  H132  1  0.765800  0.064300  0.151800  1.0  0.23
  H  H133  1  0.672200  0.440200  0.196100  1.0  0.079
  H  H134  1  0.717900  0.390500  0.129300  1.0  0.098
  H  H135  1  0.658300  0.390800  0.231500  1.0  0.0917
  H  H136  1  0.676400  0.370900  0.216000  1.0  0.0819
  H  H137  1  0.647300  0.362900  0.223300  1.0  0.0763
  H  H138  1  0.626500  0.411700  0.170700  1.0  0.0885
  H  H139  1  0.632200  0.424900  0.198200  1.0  0.0739
  H  H140  1  0.611200  0.402200  0.195900  1.0  0.0818
  H  H141  1  0.734200  0.435700  0.151800  1.0  0.2283
  H  H142  1  0.672200  0.940200  0.696100  1.0  0.079
  H  H143  1  0.717900  0.890500  0.629300  1.0  0.098
  H  H144  1  0.658300  0.890800  0.731500  1.0  0.0917
  H  H145  1  0.676400  0.870900  0.716000  1.0  0.0819
  H  H146  1  0.647300  0.862900  0.723300  1.0  0.0763
  H  H147  1  0.626500  0.911700  0.670700  1.0  0.0885
  H  H148  1  0.632200  0.924900  0.698200  1.0  0.0739
  H  H149  1  0.611200  0.902200  0.695900  1.0  0.0818
  H  H150  1  0.734200  0.935700  0.651800  1.0  0.2283
  H  H151  1  0.172200  0.440200  0.696100  1.0  0.079
  H  H152  1  0.217900  0.390500  0.629300  1.0  0.098
  H  H153  1  0.158300  0.390800  0.731500  1.0  0.0917
  H  H154  1  0.176400  0.370900  0.716000  1.0  0.0819
  H  H155  1  0.147300  0.362900  0.723300  1.0  0.0763
  H  H156  1  0.126500  0.411700  0.670700  1.0  0.0885
  H  H157  1  0.132200  0.424900  0.698200  1.0  0.0739
  H  H158  1  0.111200  0.402200  0.695900  1.0  0.0818
  H  H159  1  0.234200  0.435700  0.651800  1.0  0.2283
  H  H160  1  0.172200  0.940200  0.196100  1.0  0.079
  H  H161  1  0.217900  0.890500  0.129300  1.0  0.098
  H  H162  1  0.158300  0.890800  0.231500  1.0  0.0917
  H  H163  1  0.176400  0.870900  0.216000  1.0  0.0819
  H  H164  1  0.147300  0.862900  0.223300  1.0  0.0763
  H  H165  1  0.126500  0.911700  0.170700  1.0  0.0885
  H  H166  1  0.132200  0.924900  0.198200  1.0  0.0739
  H  H167  1  0.111200  0.902200  0.195900  1.0  0.0818
  H  H168  1  0.234200  0.935700  0.151800  1.0  0.2283
  H  H169  1  0.672200  0.559800  0.803900  1.0  0.0789
  H  H170  1  0.717900  0.609500  0.870700  1.0  0.0981
  H  H171  1  0.658300  0.609200  0.768500  1.0  0.0907
  H  H172  1  0.676400  0.629100  0.784000  1.0  0.0844
  H  H173  1  0.647300  0.637100  0.776700  1.0  0.0763
  H  H174  1  0.626500  0.588300  0.829300  1.0  0.0895
  H  H175  1  0.632200  0.575100  0.801800  1.0  0.0728
  H  H176  1  0.611200  0.597800  0.804100  1.0  0.0807
  H  H177  1  0.734200  0.564300  0.848200  1.0  0.2296
  H  H178  1  0.672200  0.059800  0.303900  1.0  0.0789
  H  H179  1  0.717900  0.109500  0.370700  1.0  0.0981
  H  H180  1  0.658300  0.109200  0.268500  1.0  0.0907
  H  H181  1  0.676400  0.129100  0.284000  1.0  0.0844
  H  H182  1  0.647300  0.137100  0.276700  1.0  0.0763
  H  H183  1  0.626500  0.088300  0.329300  1.0  0.0895
  H  H184  1  0.632200  0.075100  0.301800  1.0  0.0728
  H  H185  1  0.611200  0.097800  0.304100  1.0  0.0807
  H  H186  1  0.734200  0.064300  0.348200  1.0  0.2296
  H  H187  1  0.172200  0.559800  0.303900  1.0  0.0789
  H  H188  1  0.217900  0.609500  0.370700  1.0  0.0981
  H  H189  1  0.158300  0.609200  0.268500  1.0  0.0907
  H  H190  1  0.176400  0.629100  0.284000  1.0  0.0844
  H  H191  1  0.147300  0.637100  0.276700  1.0  0.0763
  H  H192  1  0.126500  0.588300  0.329300  1.0  0.0895
  H  H193  1  0.132200  0.575100  0.301800  1.0  0.0728
  H  H194  1  0.111200  0.597800  0.304100  1.0  0.0807
  H  H195  1  0.234200  0.564300  0.348200  1.0  0.2296
  H  H196  1  0.172200  0.059800  0.803900  1.0  0.0789
  H  H197  1  0.217900  0.109500  0.870700  1.0  0.0981
  H  H198  1  0.158300  0.109200  0.768500  1.0  0.0907
  H  H199  1  0.176400  0.129100  0.784000  1.0  0.0844
  H  H200  1  0.147300  0.137100  0.776700  1.0  0.0763
  H  H201  1  0.126500  0.088300  0.829300  1.0  0.0895
  H  H202  1  0.132200  0.075100  0.801800  1.0  0.0728
  H  H203  1  0.111200  0.097800  0.804100  1.0  0.0807
  H  H204  1  0.234200  0.064300  0.848200  1.0  0.2296
  H  H205  1  0.327800  0.440200  0.803900  1.0  0.0788
  H  H206  1  0.282100  0.390500  0.870700  1.0  0.0983
  H  H207  1  0.341700  0.390800  0.768500  1.0  0.0919
  H  H208  1  0.323600  0.370900  0.784000  1.0  0.082
  H  H209  1  0.352700  0.362900  0.776700  1.0  0.0761
  H  H210  1  0.373500  0.411700  0.829300  1.0  0.0879
  H  H211  1  0.367800  0.424900  0.801800  1.0  0.0754
  H  H212  1  0.388800  0.402200  0.804100  1.0  0.0874
  H  H213  1  0.265800  0.435700  0.848200  1.0  0.2303
  H  H214  1  0.327800  0.940200  0.303900  1.0  0.0788
  H  H215  1  0.282100  0.890500  0.370700  1.0  0.0983
  H  H216  1  0.341700  0.890800  0.268500  1.0  0.0919
  H  H217  1  0.323600  0.870900  0.284000  1.0  0.082
  H  H218  1  0.352700  0.862900  0.276700  1.0  0.0761
  H  H219  1  0.373500  0.911700  0.329300  1.0  0.0879
  H  H220  1  0.367800  0.924900  0.301800  1.0  0.0754
  H  H221  1  0.388800  0.902200  0.304100  1.0  0.0874
  H  H222  1  0.265800  0.935700  0.348200  1.0  0.2303
  H  H223  1  0.827800  0.440200  0.303900  1.0  0.0788
  H  H224  1  0.782100  0.390500  0.370700  1.0  0.0983
  H  H225  1  0.841700  0.390800  0.268500  1.0  0.0919
  H  H226  1  0.823600  0.370900  0.284000  1.0  0.082
  H  H227  1  0.852700  0.362900  0.276700  1.0  0.0761
  H  H228  1  0.873500  0.411700  0.329300  1.0  0.0877
  H  H229  1  0.867800  0.424900  0.301800  1.0  0.0754
  H  H230  1  0.888800  0.402200  0.304100  1.0  0.0874
  H  H231  1  0.765800  0.435700  0.348200  1.0  0.2303
  H  H232  1  0.827800  0.940200  0.803900  1.0  0.0788
  H  H233  1  0.782100  0.890500  0.870700  1.0  0.0983
  H  H234  1  0.841700  0.890800  0.768500  1.0  0.0919
  H  H235  1  0.823600  0.870900  0.784000  1.0  0.082
  H  H236  1  0.852700  0.862900  0.776700  1.0  0.0761
  H  H237  1  0.873500  0.911700  0.829300  1.0  0.0877
  H  H238  1  0.867800  0.924900  0.801800  1.0  0.0754
  H  H239  1  0.888800  0.902200  0.804100  1.0  0.0874
  H  H240  1  0.765800  0.935700  0.848200  1.0  0.2303
  H  H241  1  0.196100  0.327800  0.559800  1.0  0.0804
  H  H242  1  0.129300  0.282100  0.609500  1.0  0.1016
  H  H243  1  0.231500  0.341700  0.609200  1.0  0.09
  H  H244  1  0.216000  0.323600  0.629100  1.0  0.0829
  H  H245  1  0.223300  0.352700  0.637100  1.0  0.076
  H  H246  1  0.170700  0.373500  0.588300  1.0  0.086
  H  H247  1  0.198200  0.367800  0.575100  1.0  0.0767
  H  H248  1  0.195900  0.388800  0.597800  1.0  0.0786
  H  H249  1  0.151800  0.265800  0.564300  1.0  0.2275
  H  H250  1  0.196100  0.827800  0.059800  1.0  0.0804
  H  H251  1  0.129300  0.782100  0.109500  1.0  0.1016
  H  H252  1  0.231500  0.841700  0.109200  1.0  0.09
  H  H253  1  0.216000  0.823600  0.129100  1.0  0.0829
  H  H254  1  0.223300  0.852700  0.137100  1.0  0.076
  H  H255  1  0.170700  0.873500  0.088300  1.0  0.0859
  H  H256  1  0.198200  0.867800  0.075100  1.0  0.0767
  H  H257  1  0.195900  0.888800  0.097800  1.0  0.0786
  H  H258  1  0.151800  0.765800  0.064300  1.0  0.2275
  H  H259  1  0.696100  0.327800  0.059800  1.0  0.0804
  H  H260  1  0.629300  0.282100  0.109500  1.0  0.1016
  H  H261  1  0.731500  0.341700  0.109200  1.0  0.09
  H  H262  1  0.716000  0.323600  0.129100  1.0  0.0829
  H  H263  1  0.723300  0.352700  0.137100  1.0  0.076
  H  H264  1  0.670700  0.373500  0.088300  1.0  0.086
  H  H265  1  0.698200  0.367800  0.075100  1.0  0.0767
  H  H266  1  0.695900  0.388800  0.097800  1.0  0.0786
  H  H267  1  0.651800  0.265800  0.064300  1.0  0.2275
  H  H268  1  0.696100  0.827800  0.559800  1.0  0.0804
  H  H269  1  0.629300  0.782100  0.609500  1.0  0.1016
  H  H270  1  0.731500  0.841700  0.609200  1.0  0.09
  H  H271  1  0.716000  0.823600  0.629100  1.0  0.0829
  H  H272  1  0.723300  0.852700  0.637100  1.0  0.076
  H  H273  1  0.670700  0.873500  0.588300  1.0  0.0859
  H  H274  1  0.698200  0.867800  0.575100  1.0  0.0767
  H  H275  1  0.695900  0.888800  0.597800  1.0  0.0786
  H  H276  1  0.651800  0.765800  0.564300  1.0  0.2275
  H  H277  1  0.196100  0.672200  0.440200  1.0  0.0809
  H  H278  1  0.129300  0.717900  0.390500  1.0  0.1011
  H  H279  1  0.231500  0.658300  0.390800  1.0  0.091
  H  H280  1  0.216000  0.676400  0.370900  1.0  0.0826
  H  H281  1  0.223300  0.647300  0.362900  1.0  0.0763
  H  H282  1  0.170700  0.626500  0.411700  1.0  0.0887
  H  H283  1  0.198200  0.632200  0.424900  1.0  0.0773
  H  H284  1  0.195900  0.611200  0.402200  1.0  0.0752
  H  H285  1  0.151800  0.734200  0.435700  1.0  0.2284
  H  H286  1  0.196100  0.172200  0.940200  1.0  0.0809
  H  H287  1  0.129300  0.217900  0.890500  1.0  0.1011
  H  H288  1  0.231500  0.158300  0.890800  1.0  0.091
  H  H289  1  0.216000  0.176400  0.870900  1.0  0.0826
  H  H290  1  0.223300  0.147300  0.862900  1.0  0.0763
  H  H291  1  0.170700  0.126500  0.911700  1.0  0.0887
  H  H292  1  0.198200  0.132200  0.924900  1.0  0.0773
  H  H293  1  0.195900  0.111200  0.902200  1.0  0.0752
  H  H294  1  0.151800  0.234200  0.935700  1.0  0.2284
  H  H295  1  0.696100  0.672200  0.940200  1.0  0.0809
  H  H296  1  0.629300  0.717900  0.890500  1.0  0.1011
  H  H297  1  0.731500  0.658300  0.890800  1.0  0.091
  H  H298  1  0.716000  0.676400  0.870900  1.0  0.0826
  H  H299  1  0.723300  0.647300  0.862900  1.0  0.0763
  H  H300  1  0.670700  0.626500  0.911700  1.0  0.0887
  H  H301  1  0.698200  0.632200  0.924900  1.0  0.0773
  H  H302  1  0.695900  0.611200  0.902200  1.0  0.0752
  H  H303  1  0.651800  0.734200  0.935700  1.0  0.2284
  H  H304  1  0.696100  0.172200  0.440200  1.0  0.0809
  H  H305  1  0.629300  0.217900  0.390500  1.0  0.1011
  H  H306  1  0.731500  0.158300  0.390800  1.0  0.091
  H  H307  1  0.716000  0.176400  0.370900  1.0  0.0826
  H  H308  1  0.723300  0.147300  0.362900  1.0  0.0763
  H  H309  1  0.670700  0.126500  0.411700  1.0  0.0887
  H  H310  1  0.698200  0.132200  0.424900  1.0  0.0773
  H  H311  1  0.695900  0.111200  0.402200  1.0  0.0752
  H  H312  1  0.651800  0.234200  0.435700  1.0  0.2284
  H  H313  1  0.803900  0.672200  0.559800  1.0  0.0802
  H  H314  1  0.870700  0.717900  0.609500  1.0  0.1021
  H  H315  1  0.768500  0.658300  0.609200  1.0  0.0908
  H  H316  1  0.784000  0.676400  0.629100  1.0  0.0839
  H  H317  1  0.776700  0.647300  0.637100  1.0  0.0767
  H  H318  1  0.829300  0.626500  0.588300  1.0  0.0857
  H  H319  1  0.801800  0.632200  0.575100  1.0  0.0783
  H  H320  1  0.804100  0.611200  0.597800  1.0  0.0774
  H  H321  1  0.848200  0.734200  0.564300  1.0  0.2261
  H  H322  1  0.803900  0.172200  0.059800  1.0  0.0802
  H  H323  1  0.870700  0.217900  0.109500  1.0  0.1021
  H  H324  1  0.768500  0.158300  0.109200  1.0  0.0908
  H  H325  1  0.784000  0.176400  0.129100  1.0  0.0839
  H  H326  1  0.776700  0.147300  0.137100  1.0  0.0767
  H  H327  1  0.829300  0.126500  0.088300  1.0  0.0857
  H  H328  1  0.801800  0.132200  0.075100  1.0  0.0783
  H  H329  1  0.804100  0.111200  0.097800  1.0  0.0774
  H  H330  1  0.848200  0.234200  0.064300  1.0  0.2261
  H  H331  1  0.303900  0.672200  0.059800  1.0  0.0802
  H  H332  1  0.370700  0.717900  0.109500  1.0  0.1021
  H  H333  1  0.268500  0.658300  0.109200  1.0  0.0908
  H  H334  1  0.284000  0.676400  0.129100  1.0  0.0839
  H  H335  1  0.276700  0.647300  0.137100  1.0  0.0767
  H  H336  1  0.329300  0.626500  0.088300  1.0  0.0857
  H  H337  1  0.301800  0.632200  0.075100  1.0  0.0783
  H  H338  1  0.304100  0.611200  0.097800  1.0  0.0774
  H  H339  1  0.348200  0.734200  0.064300  1.0  0.2261
  H  H340  1  0.303900  0.172200  0.559800  1.0  0.0802
  H  H341  1  0.370700  0.217900  0.609500  1.0  0.1021
  H  H342  1  0.268500  0.158300  0.609200  1.0  0.0908
  H  H343  1  0.284000  0.176400  0.629100  1.0  0.0839
  H  H344  1  0.276700  0.147300  0.637100  1.0  0.0767
  H  H345  1  0.329300  0.126500  0.588300  1.0  0.0857
  H  H346  1  0.301800  0.132200  0.575100  1.0  0.0783
  H  H347  1  0.304100  0.111200  0.597800  1.0  0.0774
  H  H348  1  0.348200  0.234200  0.564300  1.0  0.2261
  H  H349  1  0.803900  0.327800  0.440200  1.0  0.0808
  H  H350  1  0.870700  0.282100  0.390500  1.0  0.1021
  H  H351  1  0.768500  0.341700  0.390800  1.0  0.0906
  H  H352  1  0.784000  0.323600  0.370900  1.0  0.0821
  H  H353  1  0.776700  0.352700  0.362900  1.0  0.0759
  H  H354  1  0.829300  0.373500  0.411700  1.0  0.0853
  H  H355  1  0.801800  0.367800  0.424900  1.0  0.0771
  H  H356  1  0.804100  0.388800  0.402200  1.0  0.0781
  H  H357  1  0.848200  0.265800  0.435700  1.0  0.2277
  H  H358  1  0.803900  0.827800  0.940200  1.0  0.0808
  H  H359  1  0.870700  0.782100  0.890500  1.0  0.1021
  H  H360  1  0.768500  0.841700  0.890800  1.0  0.0906
  H  H361  1  0.784000  0.823600  0.870900  1.0  0.0821
  H  H362  1  0.776700  0.852700  0.862900  1.0  0.0759
  H  H363  1  0.829300  0.873500  0.911700  1.0  0.0846
  H  H364  1  0.801800  0.867800  0.924900  1.0  0.0771
  H  H365  1  0.804100  0.888800  0.902200  1.0  0.0781
  H  H366  1  0.848200  0.765800  0.935700  1.0  0.2277
  H  H367  1  0.303900  0.327800  0.940200  1.0  0.0808
  H  H368  1  0.370700  0.282100  0.890500  1.0  0.1021
  H  H369  1  0.268500  0.341700  0.890800  1.0  0.0906
  H  H370  1  0.284000  0.323600  0.870900  1.0  0.0821
  H  H371  1  0.276700  0.352700  0.862900  1.0  0.0759
  H  H372  1  0.329300  0.373500  0.911700  1.0  0.0853
  H  H373  1  0.301800  0.367800  0.924900  1.0  0.0771
  H  H374  1  0.304100  0.388800  0.902200  1.0  0.0781
  H  H375  1  0.348200  0.265800  0.935700  1.0  0.2277
  H  H376  1  0.303900  0.827800  0.440200  1.0  0.0808
  H  H377  1  0.370700  0.782100  0.390500  1.0  0.1021
  H  H378  1  0.268500  0.841700  0.390800  1.0  0.0906
  H  H379  1  0.284000  0.823600  0.370900  1.0  0.0821
  H  H380  1  0.276700  0.852700  0.362900  1.0  0.0759
  H  H381  1  0.329300  0.873500  0.411700  1.0  0.0846
  H  H382  1  0.301800  0.867800  0.424900  1.0  0.0771
  H  H383  1  0.304100  0.888800  0.402200  1.0  0.0781
  H  H384  1  0.348200  0.765800  0.435700  1.0  0.2277
  H  H385  1  0.559800  0.196100  0.327800  1.0  0.0793
  H  H386  1  0.609500  0.129300  0.282100  1.0  0.0998
  H  H387  1  0.609200  0.231500  0.341700  1.0  0.0921
  H  H388  1  0.629100  0.216000  0.323600  1.0  0.0851
  H  H389  1  0.637100  0.223300  0.352700  1.0  0.0778
  H  H390  1  0.588300  0.170700  0.373500  1.0  0.089
  H  H391  1  0.575100  0.198200  0.367800  1.0  0.0739
  H  H392  1  0.597800  0.195900  0.388800  1.0  0.0772
  H  H393  1  0.564300  0.151800  0.265800  1.0  0.227
  H  H394  1  0.559800  0.696100  0.827800  1.0  0.0793
  H  H395  1  0.609500  0.629300  0.782100  1.0  0.0998
  H  H396  1  0.609200  0.731500  0.841700  1.0  0.0921
  H  H397  1  0.629100  0.716000  0.823600  1.0  0.0851
  H  H398  1  0.637100  0.723300  0.852700  1.0  0.0778
  H  H399  1  0.588300  0.670700  0.873500  1.0  0.0882
  H  H400  1  0.575100  0.698200  0.867800  1.0  0.0739
  H  H401  1  0.597800  0.695900  0.888800  1.0  0.0772
  H  H402  1  0.564300  0.651800  0.765800  1.0  0.227
  H  H403  1  0.059800  0.196100  0.827800  1.0  0.0793
  H  H404  1  0.109500  0.129300  0.782100  1.0  0.0998
  H  H405  1  0.109200  0.231500  0.841700  1.0  0.0921
  H  H406  1  0.129100  0.216000  0.823600  1.0  0.0851
  H  H407  1  0.137100  0.223300  0.852700  1.0  0.0778
  H  H408  1  0.088300  0.170700  0.873500  1.0  0.0882
  H  H409  1  0.075100  0.198200  0.867800  1.0  0.0739
  H  H410  1  0.097800  0.195900  0.888800  1.0  0.0772
  H  H411  1  0.064300  0.151800  0.765800  1.0  0.227
  H  H412  1  0.059800  0.696100  0.327800  1.0  0.0793
  H  H413  1  0.109500  0.629300  0.282100  1.0  0.0998
  H  H414  1  0.109200  0.731500  0.341700  1.0  0.0921
  H  H415  1  0.129100  0.716000  0.323600  1.0  0.0851
  H  H416  1  0.137100  0.723300  0.352700  1.0  0.0778
  H  H417  1  0.088300  0.670700  0.373500  1.0  0.089
  H  H418  1  0.075100  0.698200  0.367800  1.0  0.0739
  H  H419  1  0.097800  0.695900  0.388800  1.0  0.0772
  H  H420  1  0.064300  0.651800  0.265800  1.0  0.227
  H  H421  1  0.440200  0.196100  0.672200  1.0  0.0798
  H  H422  1  0.390500  0.129300  0.717900  1.0  0.0981
  H  H423  1  0.390800  0.231500  0.658300  1.0  0.0909
  H  H424  1  0.370900  0.216000  0.676400  1.0  0.086
  H  H425  1  0.362900  0.223300  0.647300  1.0  0.0774
  H  H426  1  0.411700  0.170700  0.626500  1.0  0.0898
  H  H427  1  0.424900  0.198200  0.632200  1.0  0.0746
  H  H428  1  0.402200  0.195900  0.611200  1.0  0.078
  H  H429  1  0.435700  0.151800  0.734200  1.0  0.2263
  H  H430  1  0.440200  0.696100  0.172200  1.0  0.0798
  H  H431  1  0.390500  0.629300  0.217900  1.0  0.0981
  H  H432  1  0.390800  0.731500  0.158300  1.0  0.0909
  H  H433  1  0.370900  0.716000  0.176400  1.0  0.086
  H  H434  1  0.362900  0.723300  0.147300  1.0  0.0774
  H  H435  1  0.411700  0.670700  0.126500  1.0  0.0898
  H  H436  1  0.424900  0.698200  0.132200  1.0  0.0746
  H  H437  1  0.402200  0.695900  0.111200  1.0  0.078
  H  H438  1  0.435700  0.651800  0.234200  1.0  0.2263
  H  H439  1  0.940200  0.196100  0.172200  1.0  0.0798
  H  H440  1  0.890500  0.129300  0.217900  1.0  0.0981
  H  H441  1  0.890800  0.231500  0.158300  1.0  0.0909
  H  H442  1  0.870900  0.216000  0.176400  1.0  0.086
  H  H443  1  0.862900  0.223300  0.147300  1.0  0.0774
  H  H444  1  0.911700  0.170700  0.126500  1.0  0.0898
  H  H445  1  0.924900  0.198200  0.132200  1.0  0.0746
  H  H446  1  0.902200  0.195900  0.111200  1.0  0.078
  H  H447  1  0.935700  0.151800  0.234200  1.0  0.2263
  H  H448  1  0.940200  0.696100  0.672200  1.0  0.0798
  H  H449  1  0.890500  0.629300  0.717900  1.0  0.0981
  H  H450  1  0.890800  0.731500  0.658300  1.0  0.0909
  H  H451  1  0.870900  0.716000  0.676400  1.0  0.086
  H  H452  1  0.862900  0.723300  0.647300  1.0  0.0774
  H  H453  1  0.911700  0.670700  0.626500  1.0  0.0898
  H  H454  1  0.924900  0.698200  0.632200  1.0  0.0746
  H  H455  1  0.902200  0.695900  0.611200  1.0  0.078
  H  H456  1  0.935700  0.651800  0.734200  1.0  0.2263
  H  H457  1  0.559800  0.803900  0.672200  1.0  0.0794
  H  H458  1  0.609500  0.870700  0.717900  1.0  0.0987
  H  H459  1  0.609200  0.768500  0.658300  1.0  0.0911
  H  H460  1  0.629100  0.784000  0.676400  1.0  0.0845
  H  H461  1  0.637100  0.776700  0.647300  1.0  0.0779
  H  H462  1  0.588300  0.829300  0.626500  1.0  0.0886
  H  H463  1  0.575100  0.801800  0.632200  1.0  0.0717
  H  H464  1  0.597800  0.804100  0.611200  1.0  0.0768
  H  H465  1  0.564300  0.848200  0.734200  1.0  0.2283
  H  H466  1  0.559800  0.303900  0.172200  1.0  0.0794
  H  H467  1  0.609500  0.370700  0.217900  1.0  0.0987
  H  H468  1  0.609200  0.268500  0.158300  1.0  0.0911
  H  H469  1  0.629100  0.284000  0.176400  1.0  0.0845
  H  H470  1  0.637100  0.276700  0.147300  1.0  0.0779
  H  H471  1  0.588300  0.329300  0.126500  1.0  0.0886
  H  H472  1  0.575100  0.301800  0.132200  1.0  0.0717
  H  H473  1  0.597800  0.304100  0.111200  1.0  0.0768
  H  H474  1  0.564300  0.348200  0.234200  1.0  0.2283
  H  H475  1  0.059800  0.803900  0.172200  1.0  0.0794
  H  H476  1  0.109500  0.870700  0.217900  1.0  0.0987
  H  H477  1  0.109200  0.768500  0.158300  1.0  0.0911
  H  H478  1  0.129100  0.784000  0.176400  1.0  0.0845
  H  H479  1  0.137100  0.776700  0.147300  1.0  0.0779
  H  H480  1  0.088300  0.829300  0.126500  1.0  0.0886
  H  H481  1  0.075100  0.801800  0.132200  1.0  0.0717
  H  H482  1  0.097800  0.804100  0.111200  1.0  0.0768
  H  H483  1  0.064300  0.848200  0.234200  1.0  0.2283
  H  H484  1  0.059800  0.303900  0.672200  1.0  0.0794
  H  H485  1  0.109500  0.370700  0.717900  1.0  0.0987
  H  H486  1  0.109200  0.268500  0.658300  1.0  0.0911
  H  H487  1  0.129100  0.284000  0.676400  1.0  0.0845
  H  H488  1  0.137100  0.276700  0.647300  1.0  0.0779
  H  H489  1  0.088300  0.329300  0.626500  1.0  0.0886
  H  H490  1  0.075100  0.301800  0.632200  1.0  0.0717
  H  H491  1  0.097800  0.304100  0.611200  1.0  0.0768
  H  H492  1  0.064300  0.348200  0.734200  1.0  0.2283
  H  H493  1  0.440200  0.803900  0.327800  1.0  0.0796
  H  H494  1  0.390500  0.870700  0.282100  1.0  0.0991
  H  H495  1  0.390800  0.768500  0.341700  1.0  0.091
  H  H496  1  0.370900  0.784000  0.323600  1.0  0.0843
  H  H497  1  0.362900  0.776700  0.352700  1.0  0.0771
  H  H498  1  0.411700  0.829300  0.373500  1.0  0.0874
  H  H499  1  0.424900  0.801800  0.367800  1.0  0.0724
  H  H500  1  0.402200  0.804100  0.388800  1.0  0.0767
  H  H501  1  0.435700  0.848200  0.265800  1.0  0.2265
  H  H502  1  0.440200  0.303900  0.827800  1.0  0.0796
  H  H503  1  0.390500  0.370700  0.782100  1.0  0.0991
  H  H504  1  0.390800  0.268500  0.841700  1.0  0.091
  H  H505  1  0.370900  0.284000  0.823600  1.0  0.0843
  H  H506  1  0.362900  0.276700  0.852700  1.0  0.0771
  H  H507  1  0.411700  0.329300  0.873500  1.0  0.0866
  H  H508  1  0.424900  0.301800  0.867800  1.0  0.0724
  H  H509  1  0.402200  0.304100  0.888800  1.0  0.0767
  H  H510  1  0.435700  0.348200  0.765800  1.0  0.2265
  H  H511  1  0.940200  0.803900  0.827800  1.0  0.0796
  H  H512  1  0.890500  0.870700  0.782100  1.0  0.0991
  H  H513  1  0.890800  0.768500  0.841700  1.0  0.091
  H  H514  1  0.870900  0.784000  0.823600  1.0  0.0843
  H  H515  1  0.862900  0.776700  0.852700  1.0  0.0771
  H  H516  1  0.911700  0.829300  0.873500  1.0  0.0866
  H  H517  1  0.924900  0.801800  0.867800  1.0  0.0724
  H  H518  1  0.902200  0.804100  0.888800  1.0  0.0767
  H  H519  1  0.935700  0.848200  0.765800  1.0  0.2265
  H  H520  1  0.940200  0.303900  0.327800  1.0  0.0796
  H  H521  1  0.890500  0.370700  0.282100  1.0  0.0991
  H  H522  1  0.890800  0.268500  0.341700  1.0  0.091
  H  H523  1  0.870900  0.284000  0.323600  1.0  0.0843
  H  H524  1  0.862900  0.276700  0.352700  1.0  0.0771
  H  H525  1  0.911700  0.329300  0.373500  1.0  0.0874
  H  H526  1  0.924900  0.301800  0.367800  1.0  0.0724
  H  H527  1  0.902200  0.304100  0.388800  1.0  0.0767
  H  H528  1  0.935700  0.348200  0.265800  1.0  0.2265
  H  H529  1  0.059800  0.827800  0.303900  1.0  0.0798
  H  H530  1  0.109500  0.782100  0.370700  1.0  0.1012
  H  H531  1  0.109200  0.841700  0.268500  1.0  0.0897
  H  H532  1  0.129100  0.823600  0.284000  1.0  0.0825
  H  H533  1  0.137100  0.852700  0.276700  1.0  0.0769
  H  H534  1  0.088300  0.873500  0.329300  1.0  0.0889
  H  H535  1  0.075100  0.867800  0.301800  1.0  0.0736
  H  H536  1  0.097800  0.888800  0.304100  1.0  0.0782
  H  H537  1  0.064300  0.765800  0.348200  1.0  0.2294
  H  H538  1  0.059800  0.327800  0.803900  1.0  0.0798
  H  H539  1  0.109500  0.282100  0.870700  1.0  0.1012
  H  H540  1  0.109200  0.341700  0.768500  1.0  0.0897
  H  H541  1  0.129100  0.323600  0.784000  1.0  0.0825
  H  H542  1  0.137100  0.352700  0.776700  1.0  0.0769
  H  H543  1  0.088300  0.373500  0.829300  1.0  0.0894
  H  H544  1  0.075100  0.367800  0.801800  1.0  0.0736
  H  H545  1  0.097800  0.388800  0.804100  1.0  0.0782
  H  H546  1  0.064300  0.265800  0.848200  1.0  0.2294
  H  H547  1  0.559800  0.827800  0.803900  1.0  0.0798
  H  H548  1  0.609500  0.782100  0.870700  1.0  0.1012
  H  H549  1  0.609200  0.841700  0.768500  1.0  0.0897
  H  H550  1  0.629100  0.823600  0.784000  1.0  0.0825
  H  H551  1  0.637100  0.852700  0.776700  1.0  0.0769
  H  H552  1  0.588300  0.873500  0.829300  1.0  0.0889
  H  H553  1  0.575100  0.867800  0.801800  1.0  0.0736
  H  H554  1  0.597800  0.888800  0.804100  1.0  0.0782
  H  H555  1  0.564300  0.765800  0.848200  1.0  0.2294
  H  H556  1  0.559800  0.327800  0.303900  1.0  0.0798
  H  H557  1  0.609500  0.282100  0.370700  1.0  0.1012
  H  H558  1  0.609200  0.341700  0.268500  1.0  0.0897
  H  H559  1  0.629100  0.323600  0.284000  1.0  0.0825
  H  H560  1  0.637100  0.352700  0.276700  1.0  0.0769
  H  H561  1  0.588300  0.373500  0.329300  1.0  0.0894
  H  H562  1  0.575100  0.367800  0.301800  1.0  0.0736
  H  H563  1  0.597800  0.388800  0.304100  1.0  0.0782
  H  H564  1  0.564300  0.265800  0.348200  1.0  0.2294
  H  H565  1  0.940200  0.172200  0.303900  1.0  0.0796
  H  H566  1  0.890500  0.217900  0.370700  1.0  0.099
  H  H567  1  0.890800  0.158300  0.268500  1.0  0.0898
  H  H568  1  0.870900  0.176400  0.284000  1.0  0.0842
  H  H569  1  0.862900  0.147300  0.276700  1.0  0.076
  H  H570  1  0.911700  0.126500  0.329300  1.0  0.0879
  H  H571  1  0.924900  0.132200  0.301800  1.0  0.0739
  H  H572  1  0.902200  0.111200  0.304100  1.0  0.0767
  H  H573  1  0.935700  0.234200  0.348200  1.0  0.227
  H  H574  1  0.940200  0.672200  0.803900  1.0  0.0796
  H  H575  1  0.890500  0.717900  0.870700  1.0  0.099
  H  H576  1  0.890800  0.658300  0.768500  1.0  0.0898
  H  H577  1  0.870900  0.676400  0.784000  1.0  0.0842
  H  H578  1  0.862900  0.647300  0.776700  1.0  0.076
  H  H579  1  0.911700  0.626500  0.829300  1.0  0.0879
  H  H580  1  0.924900  0.632200  0.801800  1.0  0.0739
  H  H581  1  0.902200  0.611200  0.804100  1.0  0.0767
  H  H582  1  0.935700  0.734200  0.848200  1.0  0.227
  H  H583  1  0.440200  0.172200  0.803900  1.0  0.0796
  H  H584  1  0.390500  0.217900  0.870700  1.0  0.099
  H  H585  1  0.390800  0.158300  0.768500  1.0  0.0898
  H  H586  1  0.370900  0.176400  0.784000  1.0  0.0842
  H  H587  1  0.362900  0.147300  0.776700  1.0  0.076
  H  H588  1  0.411700  0.126500  0.829300  1.0  0.0879
  H  H589  1  0.424900  0.132200  0.801800  1.0  0.0739
  H  H590  1  0.402200  0.111200  0.804100  1.0  0.0767
  H  H591  1  0.435700  0.234200  0.848200  1.0  0.227
  H  H592  1  0.440200  0.672200  0.303900  1.0  0.0796
  H  H593  1  0.390500  0.717900  0.370700  1.0  0.099
  H  H594  1  0.390800  0.658300  0.268500  1.0  0.0898
  H  H595  1  0.370900  0.676400  0.284000  1.0  0.0842
  H  H596  1  0.362900  0.647300  0.276700  1.0  0.076
  H  H597  1  0.411700  0.626500  0.329300  1.0  0.0879
  H  H598  1  0.424900  0.632200  0.301800  1.0  0.0739
  H  H599  1  0.402200  0.611200  0.304100  1.0  0.0767
  H  H600  1  0.435700  0.734200  0.348200  1.0  0.227
  H  H601  1  0.059800  0.172200  0.696100  1.0  0.0791
  H  H602  1  0.109500  0.217900  0.629300  1.0  0.1
  H  H603  1  0.109200  0.158300  0.731500  1.0  0.0901
  H  H604  1  0.129100  0.176400  0.716000  1.0  0.0824
  H  H605  1  0.137100  0.147300  0.723300  1.0  0.0761
  H  H606  1  0.088300  0.126500  0.670700  1.0  0.089
  H  H607  1  0.075100  0.132200  0.698200  1.0  0.0737
  H  H608  1  0.097800  0.111200  0.695900  1.0  0.0759
  H  H609  1  0.064300  0.234200  0.651800  1.0  0.2283
  H  H610  1  0.059800  0.672200  0.196100  1.0  0.0791
  H  H611  1  0.109500  0.717900  0.129300  1.0  0.1
  H  H612  1  0.109200  0.658300  0.231500  1.0  0.0901
  H  H613  1  0.129100  0.676400  0.216000  1.0  0.0824
  H  H614  1  0.137100  0.647300  0.223300  1.0  0.0761
  H  H615  1  0.088300  0.626500  0.170700  1.0  0.089
  H  H616  1  0.075100  0.632200  0.198200  1.0  0.0737
  H  H617  1  0.097800  0.611200  0.195900  1.0  0.0759
  H  H618  1  0.064300  0.734200  0.151800  1.0  0.2283
  H  H619  1  0.559800  0.172200  0.196100  1.0  0.0791
  H  H620  1  0.609500  0.217900  0.129300  1.0  0.1
  H  H621  1  0.609200  0.158300  0.231500  1.0  0.0901
  H  H622  1  0.629100  0.176400  0.216000  1.0  0.0824
  H  H623  1  0.637100  0.147300  0.223300  1.0  0.0761
  H  H624  1  0.588300  0.126500  0.170700  1.0  0.089
  H  H625  1  0.575100  0.132200  0.198200  1.0  0.0737
  H  H626  1  0.597800  0.111200  0.195900  1.0  0.0759
  H  H627  1  0.564300  0.234200  0.151800  1.0  0.2283
  H  H628  1  0.559800  0.672200  0.696100  1.0  0.0791
  H  H629  1  0.609500  0.717900  0.629300  1.0  0.1
  H  H630  1  0.609200  0.658300  0.731500  1.0  0.0901
  H  H631  1  0.629100  0.676400  0.716000  1.0  0.0824
  H  H632  1  0.637100  0.647300  0.723300  1.0  0.0761
  H  H633  1  0.588300  0.626500  0.670700  1.0  0.089
  H  H634  1  0.575100  0.632200  0.698200  1.0  0.0737
  H  H635  1  0.597800  0.611200  0.695900  1.0  0.0759
  H  H636  1  0.564300  0.734200  0.651800  1.0  0.2283
  H  H637  1  0.940200  0.827800  0.696100  1.0  0.0798
  H  H638  1  0.890500  0.782100  0.629300  1.0  0.1
  H  H639  1  0.890800  0.841700  0.731500  1.0  0.0898
  H  H640  1  0.870900  0.823600  0.716000  1.0  0.0821
  H  H641  1  0.862900  0.852700  0.723300  1.0  0.0755
  H  H642  1  0.911700  0.873500  0.670700  1.0  0.0893
  H  H643  1  0.924900  0.867800  0.698200  1.0  0.0748
  H  H644  1  0.902200  0.888800  0.695900  1.0  0.0792
  H  H645  1  0.935700  0.765800  0.651800  1.0  0.228
  H  H646  1  0.940200  0.327800  0.196100  1.0  0.0798
  H  H647  1  0.890500  0.282100  0.129300  1.0  0.1
  H  H648  1  0.890800  0.341700  0.231500  1.0  0.0898
  H  H649  1  0.870900  0.323600  0.216000  1.0  0.0821
  H  H650  1  0.862900  0.352700  0.223300  1.0  0.0755
  H  H651  1  0.911700  0.373500  0.170700  1.0  0.0896
  H  H652  1  0.924900  0.367800  0.198200  1.0  0.0748
  H  H653  1  0.902200  0.388800  0.195900  1.0  0.0792
  H  H654  1  0.935700  0.265800  0.151800  1.0  0.228
  H  H655  1  0.440200  0.827800  0.196100  1.0  0.0798
  H  H656  1  0.390500  0.782100  0.129300  1.0  0.1
  H  H657  1  0.390800  0.841700  0.231500  1.0  0.0898
  H  H658  1  0.370900  0.823600  0.216000  1.0  0.0821
  H  H659  1  0.362900  0.852700  0.223300  1.0  0.0755
  H  H660  1  0.411700  0.873500  0.170700  1.0  0.0893
  H  H661  1  0.424900  0.867800  0.198200  1.0  0.0748
  H  H662  1  0.402200  0.888800  0.195900  1.0  0.0792
  H  H663  1  0.435700  0.765800  0.151800  1.0  0.228
  H  H664  1  0.440200  0.327800  0.696100  1.0  0.0798
  H  H665  1  0.390500  0.282100  0.629300  1.0  0.1
  H  H666  1  0.390800  0.341700  0.731500  1.0  0.0898
  H  H667  1  0.370900  0.323600  0.716000  1.0  0.0821
  H  H668  1  0.362900  0.352700  0.723300  1.0  0.0755
  H  H669  1  0.411700  0.373500  0.670700  1.0  0.0896
  H  H670  1  0.424900  0.367800  0.698200  1.0  0.0748
  H  H671  1  0.402200  0.388800  0.695900  1.0  0.0792
  H  H672  1  0.435700  0.265800  0.651800  1.0  0.228
  H  H673  1  0.827800  0.696100  0.940200  1.0  0.0803
  H  H674  1  0.782100  0.629300  0.890500  1.0  0.1014
  H  H675  1  0.841700  0.731500  0.890800  1.0  0.0916
  H  H676  1  0.823600  0.716000  0.870900  1.0  0.0813
  H  H677  1  0.852700  0.723300  0.862900  1.0  0.0764
  H  H678  1  0.873500  0.670700  0.911700  1.0  0.0889
  H  H679  1  0.867800  0.698200  0.924900  1.0  0.0752
  H  H680  1  0.888800  0.695900  0.902200  1.0  0.0799
  H  H681  1  0.765800  0.651800  0.935700  1.0  0.2291
  H  H682  1  0.827800  0.196100  0.440200  1.0  0.0803
  H  H683  1  0.782100  0.129300  0.390500  1.0  0.1014
  H  H684  1  0.841700  0.231500  0.390800  1.0  0.0916
  H  H685  1  0.823600  0.216000  0.370900  1.0  0.0813
  H  H686  1  0.852700  0.223300  0.362900  1.0  0.0764
  H  H687  1  0.873500  0.170700  0.411700  1.0  0.0889
  H  H688  1  0.867800  0.198200  0.424900  1.0  0.0752
  H  H689  1  0.888800  0.195900  0.402200  1.0  0.0799
  H  H690  1  0.765800  0.151800  0.435700  1.0  0.2291
  H  H691  1  0.327800  0.696100  0.440200  1.0  0.0803
  H  H692  1  0.282100  0.629300  0.390500  1.0  0.1014
  H  H693  1  0.341700  0.731500  0.390800  1.0  0.0916
  H  H694  1  0.323600  0.716000  0.370900  1.0  0.0813
  H  H695  1  0.352700  0.723300  0.362900  1.0  0.0764
  H  H696  1  0.373500  0.670700  0.411700  1.0  0.0897
  H  H697  1  0.367800  0.698200  0.424900  1.0  0.0752
  H  H698  1  0.388800  0.695900  0.402200  1.0  0.0799
  H  H699  1  0.265800  0.651800  0.435700  1.0  0.2291
  H  H700  1  0.327800  0.196100  0.940200  1.0  0.0803
  H  H701  1  0.282100  0.129300  0.890500  1.0  0.1014
  H  H702  1  0.341700  0.231500  0.890800  1.0  0.0916
  H  H703  1  0.323600  0.216000  0.870900  1.0  0.0813
  H  H704  1  0.352700  0.223300  0.862900  1.0  0.0764
  H  H705  1  0.373500  0.170700  0.911700  1.0  0.0897
  H  H706  1  0.367800  0.198200  0.924900  1.0  0.0752
  H  H707  1  0.388800  0.195900  0.902200  1.0  0.0799
  H  H708  1  0.265800  0.151800  0.935700  1.0  0.2291
  H  H709  1  0.172200  0.696100  0.059800  1.0  0.0803
  H  H710  1  0.217900  0.629300  0.109500  1.0  0.101
  H  H711  1  0.158300  0.731500  0.109200  1.0  0.091
  H  H712  1  0.176400  0.716000  0.129100  1.0  0.0832
  H  H713  1  0.147300  0.723300  0.137100  1.0  0.0758
  H  H714  1  0.126500  0.670700  0.088300  1.0  0.0865
  H  H715  1  0.132200  0.698200  0.075100  1.0  0.0748
  H  H716  1  0.111200  0.695900  0.097800  1.0  0.0768
  H  H717  1  0.234200  0.651800  0.064300  1.0  0.2269
  H  H718  1  0.172200  0.196100  0.559800  1.0  0.0803
  H  H719  1  0.217900  0.129300  0.609500  1.0  0.101
  H  H720  1  0.158300  0.231500  0.609200  1.0  0.091
  H  H721  1  0.176400  0.216000  0.629100  1.0  0.0832
  H  H722  1  0.147300  0.223300  0.637100  1.0  0.0758
  H  H723  1  0.126500  0.170700  0.588300  1.0  0.0865
  H  H724  1  0.132200  0.198200  0.575100  1.0  0.0748
  H  H725  1  0.111200  0.195900  0.597800  1.0  0.0768
  H  H726  1  0.234200  0.151800  0.564300  1.0  0.2269
  H  H727  1  0.672200  0.696100  0.559800  1.0  0.0803
  H  H728  1  0.717900  0.629300  0.609500  1.0  0.101
  H  H729  1  0.658300  0.731500  0.609200  1.0  0.091
  H  H730  1  0.676400  0.716000  0.629100  1.0  0.0832
  H  H731  1  0.647300  0.723300  0.637100  1.0  0.0758
  H  H732  1  0.626500  0.670700  0.588300  1.0  0.0865
  H  H733  1  0.632200  0.698200  0.575100  1.0  0.0748
  H  H734  1  0.611200  0.695900  0.597800  1.0  0.0768
  H  H735  1  0.734200  0.651800  0.564300  1.0  0.2269
  H  H736  1  0.672200  0.196100  0.059800  1.0  0.0803
  H  H737  1  0.717900  0.129300  0.109500  1.0  0.101
  H  H738  1  0.658300  0.231500  0.109200  1.0  0.091
  H  H739  1  0.676400  0.216000  0.129100  1.0  0.0832
  H  H740  1  0.647300  0.223300  0.137100  1.0  0.0758
  H  H741  1  0.626500  0.170700  0.088300  1.0  0.0865
  H  H742  1  0.632200  0.198200  0.075100  1.0  0.0748
  H  H743  1  0.611200  0.195900  0.097800  1.0  0.0768
  H  H744  1  0.734200  0.151800  0.064300  1.0  0.2269
  H  H745  1  0.172200  0.303900  0.940200  1.0  0.0806
  H  H746  1  0.217900  0.370700  0.890500  1.0  0.1007
  H  H747  1  0.158300  0.268500  0.890800  1.0  0.091
  H  H748  1  0.176400  0.284000  0.870900  1.0  0.083
  H  H749  1  0.147300  0.276700  0.862900  1.0  0.0764
  H  H750  1  0.126500  0.329300  0.911700  1.0  0.0879
  H  H751  1  0.132200  0.301800  0.924900  1.0  0.076
  H  H752  1  0.111200  0.304100  0.902200  1.0  0.0777
  H  H753  1  0.234200  0.348200  0.935700  1.0  0.2283
  H  H754  1  0.172200  0.803900  0.440200  1.0  0.0806
  H  H755  1  0.217900  0.870700  0.390500  1.0  0.1007
  H  H756  1  0.158300  0.768500  0.390800  1.0  0.091
  H  H757  1  0.176400  0.784000  0.370900  1.0  0.083
  H  H758  1  0.147300  0.776700  0.362900  1.0  0.0764
  H  H759  1  0.126500  0.829300  0.411700  1.0  0.0879
  H  H760  1  0.132200  0.801800  0.424900  1.0  0.076
  H  H761  1  0.111200  0.804100  0.402200  1.0  0.0777
  H  H762  1  0.234200  0.848200  0.435700  1.0  0.2283
  H  H763  1  0.672200  0.303900  0.440200  1.0  0.0806
  H  H764  1  0.717900  0.370700  0.390500  1.0  0.1007
  H  H765  1  0.658300  0.268500  0.390800  1.0  0.091
  H  H766  1  0.676400  0.284000  0.370900  1.0  0.083
  H  H767  1  0.647300  0.276700  0.362900  1.0  0.0764
  H  H768  1  0.626500  0.329300  0.411700  1.0  0.0879
  H  H769  1  0.632200  0.301800  0.424900  1.0  0.076
  H  H770  1  0.611200  0.304100  0.402200  1.0  0.0777
  H  H771  1  0.734200  0.348200  0.435700  1.0  0.2283
  H  H772  1  0.672200  0.803900  0.940200  1.0  0.0806
  H  H773  1  0.717900  0.870700  0.890500  1.0  0.1007
  H  H774  1  0.658300  0.768500  0.890800  1.0  0.091
  H  H775  1  0.676400  0.784000  0.870900  1.0  0.083
  H  H776  1  0.647300  0.776700  0.862900  1.0  0.0764
  H  H777  1  0.626500  0.829300  0.911700  1.0  0.0879
  H  H778  1  0.632200  0.801800  0.924900  1.0  0.076
  H  H779  1  0.611200  0.804100  0.902200  1.0  0.0777
  H  H780  1  0.734200  0.848200  0.935700  1.0  0.2283
  H  H781  1  0.827800  0.303900  0.059800  1.0  0.0799
  H  H782  1  0.782100  0.370700  0.109500  1.0  0.1014
  H  H783  1  0.841700  0.268500  0.109200  1.0  0.0904
  H  H784  1  0.823600  0.284000  0.129100  1.0  0.0829
  H  H785  1  0.852700  0.276700  0.137100  1.0  0.0771
  H  H786  1  0.873500  0.329300  0.088300  1.0  0.0867
  H  H787  1  0.867800  0.301800  0.075100  1.0  0.0767
  H  H788  1  0.888800  0.304100  0.097800  1.0  0.0841
  H  H789  1  0.765800  0.348200  0.064300  1.0  0.2285
  H  H790  1  0.827800  0.803900  0.559800  1.0  0.0799
  H  H791  1  0.782100  0.870700  0.609500  1.0  0.1014
  H  H792  1  0.841700  0.768500  0.609200  1.0  0.0904
  H  H793  1  0.823600  0.784000  0.629100  1.0  0.0829
  H  H794  1  0.852700  0.776700  0.637100  1.0  0.0771
  H  H795  1  0.873500  0.829300  0.588300  1.0  0.0867
  H  H796  1  0.867800  0.801800  0.575100  1.0  0.0767
  H  H797  1  0.888800  0.804100  0.597800  1.0  0.0841
  H  H798  1  0.765800  0.848200  0.564300  1.0  0.2285
  H  H799  1  0.327800  0.303900  0.559800  1.0  0.0799
  H  H800  1  0.282100  0.370700  0.609500  1.0  0.1014
  H  H801  1  0.341700  0.268500  0.609200  1.0  0.0904
  H  H802  1  0.323600  0.284000  0.629100  1.0  0.0829
  H  H803  1  0.352700  0.276700  0.637100  1.0  0.0771
  H  H804  1  0.373500  0.329300  0.588300  1.0  0.0872
  H  H805  1  0.367800  0.301800  0.575100  1.0  0.0767
  H  H806  1  0.388800  0.304100  0.597800  1.0  0.0841
  H  H807  1  0.265800  0.348200  0.564300  1.0  0.2285
  H  H808  1  0.327800  0.803900  0.059800  1.0  0.0799
  H  H809  1  0.282100  0.870700  0.109500  1.0  0.1014
  H  H810  1  0.341700  0.768500  0.109200  1.0  0.0904
  H  H811  1  0.323600  0.784000  0.129100  1.0  0.0829
  H  H812  1  0.352700  0.776700  0.137100  1.0  0.0771
  H  H813  1  0.373500  0.829300  0.088300  1.0  0.0872
  H  H814  1  0.367800  0.801800  0.075100  1.0  0.0767
  H  H815  1  0.388800  0.804100  0.097800  1.0  0.0841
  H  H816  1  0.265800  0.848200  0.064300  1.0  0.2285
  H  H817  1  0.696100  0.059800  0.172200  1.0  0.0796
  H  H818  1  0.629300  0.109500  0.217900  1.0  0.097
  H  H819  1  0.731500  0.109200  0.158300  1.0  0.091
  H  H820  1  0.716000  0.129100  0.176400  1.0  0.0848
  H  H821  1  0.723300  0.137100  0.147300  1.0  0.0762
  H  H822  1  0.670700  0.088300  0.126500  1.0  0.0871
  H  H823  1  0.698200  0.075100  0.132200  1.0  0.0753
  H  H824  1  0.695900  0.097800  0.111200  1.0  0.0782
  H  H825  1  0.651800  0.064300  0.234200  1.0  0.2289
  H  H826  1  0.696100  0.559800  0.672200  1.0  0.0796
  H  H827  1  0.629300  0.609500  0.717900  1.0  0.097
  H  H828  1  0.731500  0.609200  0.658300  1.0  0.091
  H  H829  1  0.716000  0.629100  0.676400  1.0  0.0848
  H  H830  1  0.723300  0.637100  0.647300  1.0  0.0762
  H  H831  1  0.670700  0.588300  0.626500  1.0  0.0871
  H  H832  1  0.698200  0.575100  0.632200  1.0  0.0753
  H  H833  1  0.695900  0.597800  0.611200  1.0  0.0782
  H  H834  1  0.651800  0.564300  0.734200  1.0  0.2289
  H  H835  1  0.196100  0.059800  0.672200  1.0  0.0796
  H  H836  1  0.129300  0.109500  0.717900  1.0  0.097
  H  H837  1  0.231500  0.109200  0.658300  1.0  0.091
  H  H838  1  0.216000  0.129100  0.676400  1.0  0.0848
  H  H839  1  0.223300  0.137100  0.647300  1.0  0.0762
  H  H840  1  0.170700  0.088300  0.626500  1.0  0.0871
  H  H841  1  0.198200  0.075100  0.632200  1.0  0.0753
  H  H842  1  0.195900  0.097800  0.611200  1.0  0.0782
  H  H843  1  0.151800  0.064300  0.734200  1.0  0.2289
  H  H844  1  0.196100  0.559800  0.172200  1.0  0.0796
  H  H845  1  0.129300  0.609500  0.217900  1.0  0.097
  H  H846  1  0.231500  0.609200  0.158300  1.0  0.091
  H  H847  1  0.216000  0.629100  0.176400  1.0  0.0848
  H  H848  1  0.223300  0.637100  0.147300  1.0  0.0762
  H  H849  1  0.170700  0.588300  0.126500  1.0  0.0871
  H  H850  1  0.198200  0.575100  0.132200  1.0  0.0753
  H  H851  1  0.195900  0.597800  0.111200  1.0  0.0782
  H  H852  1  0.151800  0.564300  0.234200  1.0  0.2289
  H  H853  1  0.696100  0.940200  0.827800  1.0  0.0795
  H  H854  1  0.629300  0.890500  0.782100  1.0  0.0981
  H  H855  1  0.731500  0.890800  0.841700  1.0  0.0928
  H  H856  1  0.716000  0.870900  0.823600  1.0  0.084
  H  H857  1  0.723300  0.862900  0.852700  1.0  0.0771
  H  H858  1  0.670700  0.911700  0.873500  1.0  0.0882
  H  H859  1  0.698200  0.924900  0.867800  1.0  0.0768
  H  H860  1  0.695900  0.902200  0.888800  1.0  0.0807
  H  H861  1  0.651800  0.935700  0.765800  1.0  0.2276
  H  H862  1  0.696100  0.440200  0.327800  1.0  0.0795
  H  H863  1  0.629300  0.390500  0.282100  1.0  0.0981
  H  H864  1  0.731500  0.390800  0.341700  1.0  0.0928
  H  H865  1  0.716000  0.370900  0.323600  1.0  0.084
  H  H866  1  0.723300  0.362900  0.352700  1.0  0.0771
  H  H867  1  0.670700  0.411700  0.373500  1.0  0.089
  H  H868  1  0.698200  0.424900  0.367800  1.0  0.0768
  H  H869  1  0.695900  0.402200  0.388800  1.0  0.0807
  H  H870  1  0.651800  0.435700  0.265800  1.0  0.2276
  H  H871  1  0.196100  0.940200  0.327800  1.0  0.0795
  H  H872  1  0.129300  0.890500  0.282100  1.0  0.0981
  H  H873  1  0.231500  0.890800  0.341700  1.0  0.0928
  H  H874  1  0.216000  0.870900  0.323600  1.0  0.084
  H  H875  1  0.223300  0.862900  0.352700  1.0  0.0771
  H  H876  1  0.170700  0.911700  0.373500  1.0  0.089
  H  H877  1  0.198200  0.924900  0.367800  1.0  0.0768
  H  H878  1  0.195900  0.902200  0.388800  1.0  0.0807
  H  H879  1  0.151800  0.935700  0.265800  1.0  0.2276
  H  H880  1  0.196100  0.440200  0.827800  1.0  0.0795
  H  H881  1  0.129300  0.390500  0.782100  1.0  0.0981
  H  H882  1  0.231500  0.390800  0.841700  1.0  0.0928
  H  H883  1  0.216000  0.370900  0.823600  1.0  0.084
  H  H884  1  0.223300  0.362900  0.852700  1.0  0.0771
  H  H885  1  0.170700  0.411700  0.873500  1.0  0.0882
  H  H886  1  0.198200  0.424900  0.867800  1.0  0.0768
  H  H887  1  0.195900  0.402200  0.888800  1.0  0.0807
  H  H888  1  0.151800  0.435700  0.765800  1.0  0.2276
  H  H889  1  0.303900  0.059800  0.827800  1.0  0.0797
  H  H890  1  0.370700  0.109500  0.782100  1.0  0.0988
  H  H891  1  0.268500  0.109200  0.841700  1.0  0.0916
  H  H892  1  0.284000  0.129100  0.823600  1.0  0.0844
  H  H893  1  0.276700  0.137100  0.852700  1.0  0.0762
  H  H894  1  0.329300  0.088300  0.873500  1.0  0.0843
  H  H895  1  0.301800  0.075100  0.867800  1.0  0.0772
  H  H896  1  0.304100  0.097800  0.888800  1.0  0.0774
  H  H897  1  0.348200  0.064300  0.765800  1.0  0.2272
  H  H898  1  0.303900  0.559800  0.327800  1.0  0.0797
  H  H899  1  0.370700  0.609500  0.282100  1.0  0.0988
  H  H900  1  0.268500  0.609200  0.341700  1.0  0.0916
  H  H901  1  0.284000  0.629100  0.323600  1.0  0.0844
  H  H902  1  0.276700  0.637100  0.352700  1.0  0.0762
  H  H903  1  0.329300  0.588300  0.373500  1.0  0.085
  H  H904  1  0.301800  0.575100  0.367800  1.0  0.0772
  H  H905  1  0.304100  0.597800  0.388800  1.0  0.0774
  H  H906  1  0.348200  0.564300  0.265800  1.0  0.2272
  H  H907  1  0.803900  0.059800  0.327800  1.0  0.0797
  H  H908  1  0.870700  0.109500  0.282100  1.0  0.0988
  H  H909  1  0.768500  0.109200  0.341700  1.0  0.0916
  H  H910  1  0.784000  0.129100  0.323600  1.0  0.0844
  H  H911  1  0.776700  0.137100  0.352700  1.0  0.0762
  H  H912  1  0.829300  0.088300  0.373500  1.0  0.085
  H  H913  1  0.801800  0.075100  0.367800  1.0  0.0772
  H  H914  1  0.804100  0.097800  0.388800  1.0  0.0774
  H  H915  1  0.848200  0.064300  0.265800  1.0  0.2272
  H  H916  1  0.803900  0.559800  0.827800  1.0  0.0797
  H  H917  1  0.870700  0.609500  0.782100  1.0  0.0988
  H  H918  1  0.768500  0.609200  0.841700  1.0  0.0916
  H  H919  1  0.784000  0.629100  0.823600  1.0  0.0844
  H  H920  1  0.776700  0.637100  0.852700  1.0  0.0762
  H  H921  1  0.829300  0.588300  0.873500  1.0  0.0843
  H  H922  1  0.801800  0.575100  0.867800  1.0  0.0772
  H  H923  1  0.804100  0.597800  0.888800  1.0  0.0774
  H  H924  1  0.848200  0.564300  0.765800  1.0  0.2272
  H  H925  1  0.303900  0.940200  0.172200  1.0  0.0794
  H  H926  1  0.370700  0.890500  0.217900  1.0  0.098
  H  H927  1  0.268500  0.890800  0.158300  1.0  0.0921
  H  H928  1  0.284000  0.870900  0.176400  1.0  0.0862
  H  H929  1  0.276700  0.862900  0.147300  1.0  0.0774
  H  H930  1  0.329300  0.911700  0.126500  1.0  0.0871
  H  H931  1  0.301800  0.924900  0.132200  1.0  0.0773
  H  H932  1  0.304100  0.902200  0.111200  1.0  0.0793
  H  H933  1  0.348200  0.935700  0.234200  1.0  0.2269
  H  H934  1  0.303900  0.440200  0.672200  1.0  0.0794
  H  H935  1  0.370700  0.390500  0.717900  1.0  0.098
  H  H936  1  0.268500  0.390800  0.658300  1.0  0.0921
  H  H937  1  0.284000  0.370900  0.676400  1.0  0.0862
  H  H938  1  0.276700  0.362900  0.647300  1.0  0.0774
  H  H939  1  0.329300  0.411700  0.626500  1.0  0.0871
  H  H940  1  0.301800  0.424900  0.632200  1.0  0.0773
  H  H941  1  0.304100  0.402200  0.611200  1.0  0.0793
  H  H942  1  0.348200  0.435700  0.734200  1.0  0.2269
  H  H943  1  0.803900  0.940200  0.672200  1.0  0.0794
  H  H944  1  0.870700  0.890500  0.717900  1.0  0.098
  H  H945  1  0.768500  0.890800  0.658300  1.0  0.0921
  H  H946  1  0.784000  0.870900  0.676400  1.0  0.0862
  H  H947  1  0.776700  0.862900  0.647300  1.0  0.0774
  H  H948  1  0.829300  0.911700  0.626500  1.0  0.0871
  H  H949  1  0.801800  0.924900  0.632200  1.0  0.0773
  H  H950  1  0.804100  0.902200  0.611200  1.0  0.0793
  H  H951  1  0.848200  0.935700  0.734200  1.0  0.2269
  H  H952  1  0.803900  0.440200  0.172200  1.0  0.0794
  H  H953  1  0.870700  0.390500  0.217900  1.0  0.098
  H  H954  1  0.768500  0.390800  0.158300  1.0  0.0921
  H  H955  1  0.784000  0.370900  0.176400  1.0  0.0862
  H  H956  1  0.776700  0.362900  0.147300  1.0  0.0774
  H  H957  1  0.829300  0.411700  0.126500  1.0  0.0871
  H  H958  1  0.801800  0.424900  0.132200  1.0  0.0773
  H  H959  1  0.804100  0.402200  0.111200  1.0  0.0793
  H  H960  1  0.848200  0.435700  0.234200  1.0  0.2269
  H  H961  1  0.672200  0.440200  0.803900  1.0  0.0793
  H  H962  1  0.717900  0.390500  0.870700  1.0  0.0982
  H  H963  1  0.658300  0.390800  0.768500  1.0  0.0919
  H  H964  1  0.676400  0.370900  0.784000  1.0  0.0835
  H  H965  1  0.647300  0.362900  0.776700  1.0  0.0763
  H  H966  1  0.626500  0.411700  0.829300  1.0  0.0892
  H  H967  1  0.632200  0.424900  0.801800  1.0  0.0744
  H  H968  1  0.611200  0.402200  0.804100  1.0  0.0818
  H  H969  1  0.734200  0.435700  0.848200  1.0  0.2288
  H  H970  1  0.672200  0.940200  0.303900  1.0  0.0793
  H  H971  1  0.717900  0.890500  0.370700  1.0  0.0982
  H  H972  1  0.658300  0.890800  0.268500  1.0  0.0919
  H  H973  1  0.676400  0.870900  0.284000  1.0  0.0835
  H  H974  1  0.647300  0.862900  0.276700  1.0  0.0763
  H  H975  1  0.626500  0.911700  0.329300  1.0  0.0892
  H  H976  1  0.632200  0.924900  0.301800  1.0  0.0744
  H  H977  1  0.611200  0.902200  0.304100  1.0  0.0818
  H  H978  1  0.734200  0.935700  0.348200  1.0  0.2288
  H  H979  1  0.172200  0.440200  0.303900  1.0  0.0793
  H  H980  1  0.217900  0.390500  0.370700  1.0  0.0982
  H  H981  1  0.158300  0.390800  0.268500  1.0  0.0919
  H  H982  1  0.176400  0.370900  0.284000  1.0  0.0835
  H  H983  1  0.147300  0.362900  0.276700  1.0  0.0763
  H  H984  1  0.126500  0.411700  0.329300  1.0  0.0892
  H  H985  1  0.132200  0.424900  0.301800  1.0  0.0744
  H  H986  1  0.111200  0.402200  0.304100  1.0  0.0818
  H  H987  1  0.234200  0.435700  0.348200  1.0  0.2288
  H  H988  1  0.172200  0.940200  0.803900  1.0  0.0793
  H  H989  1  0.217900  0.890500  0.870700  1.0  0.0982
  H  H990  1  0.158300  0.890800  0.768500  1.0  0.0919
  H  H991  1  0.176400  0.870900  0.784000  1.0  0.0835
  H  H992  1  0.147300  0.862900  0.776700  1.0  0.0763
  H  H993  1  0.126500  0.911700  0.829300  1.0  0.0892
  H  H994  1  0.132200  0.924900  0.801800  1.0  0.0744
  H  H995  1  0.111200  0.902200  0.804100  1.0  0.0818
  H  H996  1  0.234200  0.935700  0.848200  1.0  0.2288
  H  H997  1  0.327800  0.559800  0.803900  1.0  0.0791
  H  H998  1  0.282100  0.609500  0.870700  1.0  0.0983
  H  H999  1  0.341700  0.609200  0.768500  1.0  0.091
  H  H1000  1  0.323600  0.629100  0.784000  1.0  0.081
  H  H1001  1  0.352700  0.637100  0.776700  1.0  0.0761
  H  H1002  1  0.373500  0.588300  0.829300  1.0  0.0876
  H  H1003  1  0.367800  0.575100  0.801800  1.0  0.075
  H  H1004  1  0.388800  0.597800  0.804100  1.0  0.0834
  H  H1005  1  0.265800  0.564300  0.848200  1.0  0.2308
  H  H1006  1  0.327800  0.059800  0.303900  1.0  0.0791
  H  H1007  1  0.282100  0.109500  0.370700  1.0  0.0983
  H  H1008  1  0.341700  0.109200  0.268500  1.0  0.091
  H  H1009  1  0.323600  0.129100  0.284000  1.0  0.081
  H  H1010  1  0.352700  0.137100  0.276700  1.0  0.0761
  H  H1011  1  0.373500  0.088300  0.329300  1.0  0.0876
  H  H1012  1  0.367800  0.075100  0.301800  1.0  0.075
  H  H1013  1  0.388800  0.097800  0.304100  1.0  0.0834
  H  H1014  1  0.265800  0.064300  0.348200  1.0  0.2308
  H  H1015  1  0.827800  0.559800  0.303900  1.0  0.0791
  H  H1016  1  0.782100  0.609500  0.370700  1.0  0.0983
  H  H1017  1  0.841700  0.609200  0.268500  1.0  0.091
  H  H1018  1  0.823600  0.629100  0.284000  1.0  0.081
  H  H1019  1  0.852700  0.637100  0.276700  1.0  0.0761
  H  H1020  1  0.873500  0.588300  0.329300  1.0  0.0873
  H  H1021  1  0.867800  0.575100  0.301800  1.0  0.075
  H  H1022  1  0.888800  0.597800  0.304100  1.0  0.0834
  H  H1023  1  0.765800  0.564300  0.348200  1.0  0.2308
  H  H1024  1  0.827800  0.059800  0.803900  1.0  0.0791
  H  H1025  1  0.782100  0.109500  0.870700  1.0  0.0983
  H  H1026  1  0.841700  0.109200  0.768500  1.0  0.091
  H  H1027  1  0.823600  0.129100  0.784000  1.0  0.081
  H  H1028  1  0.852700  0.137100  0.776700  1.0  0.0761
  H  H1029  1  0.873500  0.088300  0.829300  1.0  0.0873
  H  H1030  1  0.867800  0.075100  0.801800  1.0  0.075
  H  H1031  1  0.888800  0.097800  0.804100  1.0  0.0834
  H  H1032  1  0.765800  0.064300  0.848200  1.0  0.2308
  H  H1033  1  0.327800  0.440200  0.196100  1.0  0.0787
  H  H1034  1  0.282100  0.390500  0.129300  1.0  0.0983
  H  H1035  1  0.341700  0.390800  0.231500  1.0  0.0921
  H  H1036  1  0.323600  0.370900  0.216000  1.0  0.0826
  H  H1037  1  0.352700  0.362900  0.223300  1.0  0.0773
  H  H1038  1  0.373500  0.411700  0.170700  1.0  0.089
  H  H1039  1  0.367800  0.424900  0.198200  1.0  0.0741
  H  H1040  1  0.388800  0.402200  0.195900  1.0  0.0884
  H  H1041  1  0.265800  0.435700  0.151800  1.0  0.2298
  H  H1042  1  0.327800  0.940200  0.696100  1.0  0.0787
  H  H1043  1  0.282100  0.890500  0.629300  1.0  0.0983
  H  H1044  1  0.341700  0.890800  0.731500  1.0  0.0921
  H  H1045  1  0.323600  0.870900  0.716000  1.0  0.0826
  H  H1046  1  0.352700  0.862900  0.723300  1.0  0.0773
  H  H1047  1  0.373500  0.911700  0.670700  1.0  0.089
  H  H1048  1  0.367800  0.924900  0.698200  1.0  0.0741
  H  H1049  1  0.388800  0.902200  0.695900  1.0  0.0884
  H  H1050  1  0.265800  0.935700  0.651800  1.0  0.2298
  H  H1051  1  0.827800  0.440200  0.696100  1.0  0.0787
  H  H1052  1  0.782100  0.390500  0.629300  1.0  0.0983
  H  H1053  1  0.841700  0.390800  0.731500  1.0  0.0921
  H  H1054  1  0.823600  0.370900  0.716000  1.0  0.0826
  H  H1055  1  0.852700  0.362900  0.723300  1.0  0.0773
  H  H1056  1  0.873500  0.411700  0.670700  1.0  0.0888
  H  H1057  1  0.867800  0.424900  0.698200  1.0  0.0741
  H  H1058  1  0.888800  0.402200  0.695900  1.0  0.0884
  H  H1059  1  0.765800  0.435700  0.651800  1.0  0.2298
  H  H1060  1  0.827800  0.940200  0.196100  1.0  0.0787
  H  H1061  1  0.782100  0.890500  0.129300  1.0  0.0983
  H  H1062  1  0.841700  0.890800  0.231500  1.0  0.0921
  H  H1063  1  0.823600  0.870900  0.216000  1.0  0.0826
  H  H1064  1  0.852700  0.862900  0.223300  1.0  0.0773
  H  H1065  1  0.873500  0.911700  0.170700  1.0  0.0888
  H  H1066  1  0.867800  0.924900  0.198200  1.0  0.0741
  H  H1067  1  0.888800  0.902200  0.195900  1.0  0.0884
  H  H1068  1  0.765800  0.935700  0.151800  1.0  0.2298
  H  H1069  1  0.672200  0.559800  0.196100  1.0  0.0787
  H  H1070  1  0.717900  0.609500  0.129300  1.0  0.0975
  H  H1071  1  0.658300  0.609200  0.231500  1.0  0.0909
  H  H1072  1  0.676400  0.629100  0.216000  1.0  0.0823
  H  H1073  1  0.647300  0.637100  0.223300  1.0  0.0751
  H  H1074  1  0.626500  0.588300  0.170700  1.0  0.0887
  H  H1075  1  0.632200  0.575100  0.198200  1.0  0.0741
  H  H1076  1  0.611200  0.597800  0.195900  1.0  0.0798
  H  H1077  1  0.734200  0.564300  0.151800  1.0  0.2293
  H  H1078  1  0.672200  0.059800  0.696100  1.0  0.0787
  H  H1079  1  0.717900  0.109500  0.629300  1.0  0.0975
  H  H1080  1  0.658300  0.109200  0.731500  1.0  0.0909
  H  H1081  1  0.676400  0.129100  0.716000  1.0  0.0823
  H  H1082  1  0.647300  0.137100  0.723300  1.0  0.0751
  H  H1083  1  0.626500  0.088300  0.670700  1.0  0.0887
  H  H1084  1  0.632200  0.075100  0.698200  1.0  0.0741
  H  H1085  1  0.611200  0.097800  0.695900  1.0  0.0798
  H  H1086  1  0.734200  0.064300  0.651800  1.0  0.2293
  H  H1087  1  0.172200  0.559800  0.696100  1.0  0.0787
  H  H1088  1  0.217900  0.609500  0.629300  1.0  0.0975
  H  H1089  1  0.158300  0.609200  0.731500  1.0  0.0909
  H  H1090  1  0.176400  0.629100  0.716000  1.0  0.0823
  H  H1091  1  0.147300  0.637100  0.723300  1.0  0.0751
  H  H1092  1  0.126500  0.588300  0.670700  1.0  0.0887
  H  H1093  1  0.132200  0.575100  0.698200  1.0  0.0741
  H  H1094  1  0.111200  0.597800  0.695900  1.0  0.0798
  H  H1095  1  0.234200  0.564300  0.651800  1.0  0.2293
  H  H1096  1  0.172200  0.059800  0.196100  1.0  0.0787
  H  H1097  1  0.217900  0.109500  0.129300  1.0  0.0975
  H  H1098  1  0.158300  0.109200  0.231500  1.0  0.0909
  H  H1099  1  0.176400  0.129100  0.216000  1.0  0.0823
  H  H1100  1  0.147300  0.137100  0.223300  1.0  0.0751
  H  H1101  1  0.126500  0.088300  0.170700  1.0  0.0887
  H  H1102  1  0.132200  0.075100  0.198200  1.0  0.0741
  H  H1103  1  0.111200  0.097800  0.195900  1.0  0.0798
  H  H1104  1  0.234200  0.064300  0.151800  1.0  0.2293
  H  H1105  1  0.803900  0.672200  0.440200  1.0  0.0807
  H  H1106  1  0.870700  0.717900  0.390500  1.0  0.1016
  H  H1107  1  0.768500  0.658300  0.390800  1.0  0.0911
  H  H1108  1  0.784000  0.676400  0.370900  1.0  0.0836
  H  H1109  1  0.776700  0.647300  0.362900  1.0  0.0764
  H  H1110  1  0.829300  0.626500  0.411700  1.0  0.0841
  H  H1111  1  0.801800  0.632200  0.424900  1.0  0.0774
  H  H1112  1  0.804100  0.611200  0.402200  1.0  0.0757
  H  H1113  1  0.848200  0.734200  0.435700  1.0  0.2268
  H  H1114  1  0.803900  0.172200  0.940200  1.0  0.0807
  H  H1115  1  0.870700  0.217900  0.890500  1.0  0.1016
  H  H1116  1  0.768500  0.158300  0.890800  1.0  0.0911
  H  H1117  1  0.784000  0.176400  0.870900  1.0  0.0836
  H  H1118  1  0.776700  0.147300  0.862900  1.0  0.0764
  H  H1119  1  0.829300  0.126500  0.911700  1.0  0.0841
  H  H1120  1  0.801800  0.132200  0.924900  1.0  0.0774
  H  H1121  1  0.804100  0.111200  0.902200  1.0  0.0757
  H  H1122  1  0.848200  0.234200  0.935700  1.0  0.2268
  H  H1123  1  0.303900  0.672200  0.940200  1.0  0.0807
  H  H1124  1  0.370700  0.717900  0.890500  1.0  0.1016
  H  H1125  1  0.268500  0.658300  0.890800  1.0  0.0911
  H  H1126  1  0.284000  0.676400  0.870900  1.0  0.0836
  H  H1127  1  0.276700  0.647300  0.862900  1.0  0.0764
  H  H1128  1  0.329300  0.626500  0.911700  1.0  0.0841
  H  H1129  1  0.301800  0.632200  0.924900  1.0  0.0774
  H  H1130  1  0.304100  0.611200  0.902200  1.0  0.0757
  H  H1131  1  0.348200  0.734200  0.935700  1.0  0.2268
  H  H1132  1  0.303900  0.172200  0.440200  1.0  0.0807
  H  H1133  1  0.370700  0.217900  0.390500  1.0  0.1016
  H  H1134  1  0.268500  0.158300  0.390800  1.0  0.0911
  H  H1135  1  0.284000  0.176400  0.370900  1.0  0.0836
  H  H1136  1  0.276700  0.147300  0.362900  1.0  0.0764
  H  H1137  1  0.329300  0.126500  0.411700  1.0  0.0841
  H  H1138  1  0.301800  0.132200  0.424900  1.0  0.0774
  H  H1139  1  0.304100  0.111200  0.402200  1.0  0.0757
  H  H1140  1  0.348200  0.234200  0.435700  1.0  0.2268
  H  H1141  1  0.803900  0.327800  0.559800  1.0  0.0805
  H  H1142  1  0.870700  0.282100  0.609500  1.0  0.1026
  H  H1143  1  0.768500  0.341700  0.609200  1.0  0.09
  H  H1144  1  0.784000  0.323600  0.629100  1.0  0.0833
  H  H1145  1  0.776700  0.352700  0.637100  1.0  0.0764
  H  H1146  1  0.829300  0.373500  0.588300  1.0  0.0868
  H  H1147  1  0.801800  0.367800  0.575100  1.0  0.0773
  H  H1148  1  0.804100  0.388800  0.597800  1.0  0.0798
  H  H1149  1  0.848200  0.265800  0.564300  1.0  0.227
  H  H1150  1  0.803900  0.827800  0.059800  1.0  0.0805
  H  H1151  1  0.870700  0.782100  0.109500  1.0  0.1026
  H  H1152  1  0.768500  0.841700  0.109200  1.0  0.09
  H  H1153  1  0.784000  0.823600  0.129100  1.0  0.0833
  H  H1154  1  0.776700  0.852700  0.137100  1.0  0.0764
  H  H1155  1  0.829300  0.873500  0.088300  1.0  0.0865
  H  H1156  1  0.801800  0.867800  0.075100  1.0  0.0773
  H  H1157  1  0.804100  0.888800  0.097800  1.0  0.0798
  H  H1158  1  0.848200  0.765800  0.064300  1.0  0.227
  H  H1159  1  0.303900  0.327800  0.059800  1.0  0.0805
  H  H1160  1  0.370700  0.282100  0.109500  1.0  0.1026
  H  H1161  1  0.268500  0.341700  0.109200  1.0  0.09
  H  H1162  1  0.284000  0.323600  0.129100  1.0  0.0833
  H  H1163  1  0.276700  0.352700  0.137100  1.0  0.0764
  H  H1164  1  0.329300  0.373500  0.088300  1.0  0.0868
  H  H1165  1  0.301800  0.367800  0.075100  1.0  0.0773
  H  H1166  1  0.304100  0.388800  0.097800  1.0  0.0798
  H  H1167  1  0.348200  0.265800  0.064300  1.0  0.227
  H  H1168  1  0.303900  0.827800  0.559800  1.0  0.0805
  H  H1169  1  0.370700  0.782100  0.609500  1.0  0.1026
  H  H1170  1  0.268500  0.841700  0.609200  1.0  0.09
  H  H1171  1  0.284000  0.823600  0.629100  1.0  0.0833
  H  H1172  1  0.276700  0.852700  0.637100  1.0  0.0764
  H  H1173  1  0.329300  0.873500  0.588300  1.0  0.0865
  H  H1174  1  0.301800  0.867800  0.575100  1.0  0.0773
  H  H1175  1  0.304100  0.888800  0.597800  1.0  0.0798
  H  H1176  1  0.348200  0.765800  0.564300  1.0  0.227
  H  H1177  1  0.196100  0.327800  0.440200  1.0  0.0808
  H  H1178  1  0.129300  0.282100  0.390500  1.0  0.1015
  H  H1179  1  0.231500  0.341700  0.390800  1.0  0.0909
  H  H1180  1  0.216000  0.323600  0.370900  1.0  0.0816
  H  H1181  1  0.223300  0.352700  0.362900  1.0  0.0757
  H  H1182  1  0.170700  0.373500  0.411700  1.0  0.0884
  H  H1183  1  0.198200  0.367800  0.424900  1.0  0.0775
  H  H1184  1  0.195900  0.388800  0.402200  1.0  0.0772
  H  H1185  1  0.151800  0.265800  0.435700  1.0  0.229
  H  H1186  1  0.196100  0.827800  0.940200  1.0  0.0808
  H  H1187  1  0.129300  0.782100  0.890500  1.0  0.1015
  H  H1188  1  0.231500  0.841700  0.890800  1.0  0.0909
  H  H1189  1  0.216000  0.823600  0.870900  1.0  0.0816
  H  H1190  1  0.223300  0.852700  0.862900  1.0  0.0757
  H  H1191  1  0.170700  0.873500  0.911700  1.0  0.0877
  H  H1192  1  0.198200  0.867800  0.924900  1.0  0.0775
  H  H1193  1  0.195900  0.888800  0.902200  1.0  0.0772
  H  H1194  1  0.151800  0.765800  0.935700  1.0  0.229
  H  H1195  1  0.696100  0.327800  0.940200  1.0  0.0808
  H  H1196  1  0.629300  0.282100  0.890500  1.0  0.1015
  H  H1197  1  0.731500  0.341700  0.890800  1.0  0.0909
  H  H1198  1  0.716000  0.323600  0.870900  1.0  0.0816
  H  H1199  1  0.723300  0.352700  0.862900  1.0  0.0757
  H  H1200  1  0.670700  0.373500  0.911700  1.0  0.0884
  H  H1201  1  0.698200  0.367800  0.924900  1.0  0.0775
  H  H1202  1  0.695900  0.388800  0.902200  1.0  0.0772
  H  H1203  1  0.651800  0.265800  0.935700  1.0  0.229
  H  H1204  1  0.696100  0.827800  0.440200  1.0  0.0808
  H  H1205  1  0.629300  0.782100  0.390500  1.0  0.1015
  H  H1206  1  0.731500  0.841700  0.390800  1.0  0.0909
  H  H1207  1  0.716000  0.823600  0.370900  1.0  0.0816
  H  H1208  1  0.723300  0.852700  0.362900  1.0  0.0757
  H  H1209  1  0.670700  0.873500  0.411700  1.0  0.0877
  H  H1210  1  0.698200  0.867800  0.424900  1.0  0.0775
  H  H1211  1  0.695900  0.888800  0.402200  1.0  0.0772
  H  H1212  1  0.651800  0.765800  0.435700  1.0  0.229
  H  H1213  1  0.196100  0.672200  0.559800  1.0  0.0802
  H  H1214  1  0.129300  0.717900  0.609500  1.0  0.1013
  H  H1215  1  0.231500  0.658300  0.609200  1.0  0.0904
  H  H1216  1  0.216000  0.676400  0.629100  1.0  0.0823
  H  H1217  1  0.223300  0.647300  0.637100  1.0  0.0761
  H  H1218  1  0.170700  0.626500  0.588300  1.0  0.0869
  H  H1219  1  0.198200  0.632200  0.575100  1.0  0.0774
  H  H1220  1  0.195900  0.611200  0.597800  1.0  0.0768
  H  H1221  1  0.151800  0.734200  0.564300  1.0  0.2268
  H  H1222  1  0.196100  0.172200  0.059800  1.0  0.0802
  H  H1223  1  0.129300  0.217900  0.109500  1.0  0.1013
  H  H1224  1  0.231500  0.158300  0.109200  1.0  0.0904
  H  H1225  1  0.216000  0.176400  0.129100  1.0  0.0823
  H  H1226  1  0.223300  0.147300  0.137100  1.0  0.0761
  H  H1227  1  0.170700  0.126500  0.088300  1.0  0.0869
  H  H1228  1  0.198200  0.132200  0.075100  1.0  0.0774
  H  H1229  1  0.195900  0.111200  0.097800  1.0  0.0768
  H  H1230  1  0.151800  0.234200  0.064300  1.0  0.2268
  H  H1231  1  0.696100  0.672200  0.059800  1.0  0.0802
  H  H1232  1  0.629300  0.717900  0.109500  1.0  0.1013
  H  H1233  1  0.731500  0.658300  0.109200  1.0  0.0904
  H  H1234  1  0.716000  0.676400  0.129100  1.0  0.0823
  H  H1235  1  0.723300  0.647300  0.137100  1.0  0.0761
  H  H1236  1  0.670700  0.626500  0.088300  1.0  0.0869
  H  H1237  1  0.698200  0.632200  0.075100  1.0  0.0774
  H  H1238  1  0.695900  0.611200  0.097800  1.0  0.0768
  H  H1239  1  0.651800  0.734200  0.064300  1.0  0.2268
  H  H1240  1  0.696100  0.172200  0.559800  1.0  0.0802
  H  H1241  1  0.629300  0.217900  0.609500  1.0  0.1013
  H  H1242  1  0.731500  0.158300  0.609200  1.0  0.0904
  H  H1243  1  0.716000  0.176400  0.629100  1.0  0.0823
  H  H1244  1  0.723300  0.147300  0.637100  1.0  0.0761
  H  H1245  1  0.670700  0.126500  0.588300  1.0  0.0869
  H  H1246  1  0.698200  0.132200  0.575100  1.0  0.0774
  H  H1247  1  0.695900  0.111200  0.597800  1.0  0.0768
  H  H1248  1  0.651800  0.234200  0.564300  1.0  0.2268
  H  H1249  1  0.440200  0.803900  0.672200  1.0  0.0798
  H  H1250  1  0.390500  0.870700  0.717900  1.0  0.0977
  H  H1251  1  0.390800  0.768500  0.658300  1.0  0.0908
  H  H1252  1  0.370900  0.784000  0.676400  1.0  0.0857
  H  H1253  1  0.362900  0.776700  0.647300  1.0  0.0775
  H  H1254  1  0.411700  0.829300  0.626500  1.0  0.0881
  H  H1255  1  0.424900  0.801800  0.632200  1.0  0.0737
  H  H1256  1  0.402200  0.804100  0.611200  1.0  0.078
  H  H1257  1  0.435700  0.848200  0.734200  1.0  0.2266
  H  H1258  1  0.440200  0.303900  0.172200  1.0  0.0798
  H  H1259  1  0.390500  0.370700  0.217900  1.0  0.0977
  H  H1260  1  0.390800  0.268500  0.158300  1.0  0.0908
  H  H1261  1  0.370900  0.284000  0.176400  1.0  0.0857
  H  H1262  1  0.362900  0.276700  0.147300  1.0  0.0775
  H  H1263  1  0.411700  0.329300  0.126500  1.0  0.0881
  H  H1264  1  0.424900  0.301800  0.132200  1.0  0.0737
  H  H1265  1  0.402200  0.304100  0.111200  1.0  0.078
  H  H1266  1  0.435700  0.348200  0.234200  1.0  0.2266
  H  H1267  1  0.940200  0.803900  0.172200  1.0  0.0798
  H  H1268  1  0.890500  0.870700  0.217900  1.0  0.0977
  H  H1269  1  0.890800  0.768500  0.158300  1.0  0.0908
  H  H1270  1  0.870900  0.784000  0.176400  1.0  0.0857
  H  H1271  1  0.862900  0.776700  0.147300  1.0  0.0775
  H  H1272  1  0.911700  0.829300  0.126500  1.0  0.0881
  H  H1273  1  0.924900  0.801800  0.132200  1.0  0.0737
  H  H1274  1  0.902200  0.804100  0.111200  1.0  0.078
  H  H1275  1  0.935700  0.848200  0.234200  1.0  0.2266
  H  H1276  1  0.940200  0.303900  0.672200  1.0  0.0798
  H  H1277  1  0.890500  0.370700  0.717900  1.0  0.0977
  H  H1278  1  0.890800  0.268500  0.658300  1.0  0.0908
  H  H1279  1  0.870900  0.284000  0.676400  1.0  0.0857
  H  H1280  1  0.862900  0.276700  0.647300  1.0  0.0775
  H  H1281  1  0.911700  0.329300  0.626500  1.0  0.0881
  H  H1282  1  0.924900  0.301800  0.632200  1.0  0.0737
  H  H1283  1  0.902200  0.304100  0.611200  1.0  0.078
  H  H1284  1  0.935700  0.348200  0.734200  1.0  0.2266
  H  H1285  1  0.559800  0.803900  0.327800  1.0  0.0796
  H  H1286  1  0.609500  0.870700  0.282100  1.0  0.0998
  H  H1287  1  0.609200  0.768500  0.341700  1.0  0.0911
  H  H1288  1  0.629100  0.784000  0.323600  1.0  0.0846
  H  H1289  1  0.637100  0.776700  0.352700  1.0  0.0773
  H  H1290  1  0.588300  0.829300  0.373500  1.0  0.0887
  H  H1291  1  0.575100  0.801800  0.367800  1.0  0.074
  H  H1292  1  0.597800  0.804100  0.388800  1.0  0.0771
  H  H1293  1  0.564300  0.848200  0.265800  1.0  0.2277
  H  H1294  1  0.559800  0.303900  0.827800  1.0  0.0796
  H  H1295  1  0.609500  0.370700  0.782100  1.0  0.0998
  H  H1296  1  0.609200  0.268500  0.841700  1.0  0.0911
  H  H1297  1  0.629100  0.284000  0.823600  1.0  0.0846
  H  H1298  1  0.637100  0.276700  0.852700  1.0  0.0773
  H  H1299  1  0.588300  0.329300  0.873500  1.0  0.0874
  H  H1300  1  0.575100  0.301800  0.867800  1.0  0.074
  H  H1301  1  0.597800  0.304100  0.888800  1.0  0.0771
  H  H1302  1  0.564300  0.348200  0.765800  1.0  0.2277
  H  H1303  1  0.059800  0.803900  0.827800  1.0  0.0796
  H  H1304  1  0.109500  0.870700  0.782100  1.0  0.0998
  H  H1305  1  0.109200  0.768500  0.841700  1.0  0.0911
  H  H1306  1  0.129100  0.784000  0.823600  1.0  0.0846
  H  H1307  1  0.137100  0.776700  0.852700  1.0  0.0773
  H  H1308  1  0.088300  0.829300  0.873500  1.0  0.0874
  H  H1309  1  0.075100  0.801800  0.867800  1.0  0.074
  H  H1310  1  0.097800  0.804100  0.888800  1.0  0.0771
  H  H1311  1  0.064300  0.848200  0.765800  1.0  0.2277
  H  H1312  1  0.059800  0.303900  0.327800  1.0  0.0796
  H  H1313  1  0.109500  0.370700  0.282100  1.0  0.0998
  H  H1314  1  0.109200  0.268500  0.341700  1.0  0.0911
  H  H1315  1  0.129100  0.284000  0.323600  1.0  0.0846
  H  H1316  1  0.137100  0.276700  0.352700  1.0  0.0773
  H  H1317  1  0.088300  0.329300  0.373500  1.0  0.0887
  H  H1318  1  0.075100  0.301800  0.367800  1.0  0.074
  H  H1319  1  0.097800  0.304100  0.388800  1.0  0.0771
  H  H1320  1  0.064300  0.348200  0.265800  1.0  0.2277
  H  H1321  1  0.440200  0.196100  0.327800  1.0  0.0795
  H  H1322  1  0.390500  0.129300  0.282100  1.0  0.0994
  H  H1323  1  0.390800  0.231500  0.341700  1.0  0.0916
  H  H1324  1  0.370900  0.216000  0.323600  1.0  0.0845
  H  H1325  1  0.362900  0.223300  0.352700  1.0  0.0769
  H  H1326  1  0.411700  0.170700  0.373500  1.0  0.0901
  H  H1327  1  0.424900  0.198200  0.367800  1.0  0.0733
  H  H1328  1  0.402200  0.195900  0.388800  1.0  0.0774
  H  H1329  1  0.435700  0.151800  0.265800  1.0  0.2259
  H  H1330  1  0.440200  0.696100  0.827800  1.0  0.0795
  H  H1331  1  0.390500  0.629300  0.782100  1.0  0.0994
  H  H1332  1  0.390800  0.731500  0.841700  1.0  0.0916
  H  H1333  1  0.370900  0.716000  0.823600  1.0  0.0845
  H  H1334  1  0.362900  0.723300  0.852700  1.0  0.0769
  H  H1335  1  0.411700  0.670700  0.873500  1.0  0.0893
  H  H1336  1  0.424900  0.698200  0.867800  1.0  0.0733
  H  H1337  1  0.402200  0.695900  0.888800  1.0  0.0774
  H  H1338  1  0.435700  0.651800  0.765800  1.0  0.2259
  H  H1339  1  0.940200  0.196100  0.827800  1.0  0.0795
  H  H1340  1  0.890500  0.129300  0.782100  1.0  0.0994
  H  H1341  1  0.890800  0.231500  0.841700  1.0  0.0916
  H  H1342  1  0.870900  0.216000  0.823600  1.0  0.0845
  H  H1343  1  0.862900  0.223300  0.852700  1.0  0.0769
  H  H1344  1  0.911700  0.170700  0.873500  1.0  0.0893
  H  H1345  1  0.924900  0.198200  0.867800  1.0  0.0733
  H  H1346  1  0.902200  0.195900  0.888800  1.0  0.0774
  H  H1347  1  0.935700  0.151800  0.765800  1.0  0.2259
  H  H1348  1  0.940200  0.696100  0.327800  1.0  0.0795
  H  H1349  1  0.890500  0.629300  0.282100  1.0  0.0994
  H  H1350  1  0.890800  0.731500  0.341700  1.0  0.0916
  H  H1351  1  0.870900  0.716000  0.323600  1.0  0.0845
  H  H1352  1  0.862900  0.723300  0.352700  1.0  0.0769
  H  H1353  1  0.911700  0.670700  0.373500  1.0  0.0901
  H  H1354  1  0.924900  0.698200  0.367800  1.0  0.0733
  H  H1355  1  0.902200  0.695900  0.388800  1.0  0.0774
  H  H1356  1  0.935700  0.651800  0.265800  1.0  0.2259
  H  H1357  1  0.559800  0.196100  0.672200  1.0  0.0793
  H  H1358  1  0.609500  0.129300  0.717900  1.0  0.0996
  H  H1359  1  0.609200  0.231500  0.658300  1.0  0.0916
  H  H1360  1  0.629100  0.216000  0.676400  1.0  0.0851
  H  H1361  1  0.637100  0.223300  0.647300  1.0  0.0782
  H  H1362  1  0.588300  0.170700  0.626500  1.0  0.0873
  H  H1363  1  0.575100  0.198200  0.632200  1.0  0.072
  H  H1364  1  0.597800  0.195900  0.611200  1.0  0.0765
  H  H1365  1  0.564300  0.151800  0.734200  1.0  0.2279
  H  H1366  1  0.559800  0.696100  0.172200  1.0  0.0793
  H  H1367  1  0.609500  0.629300  0.217900  1.0  0.0996
  H  H1368  1  0.609200  0.731500  0.158300  1.0  0.0916
  H  H1369  1  0.629100  0.716000  0.176400  1.0  0.0851
  H  H1370  1  0.637100  0.723300  0.147300  1.0  0.0782
  H  H1371  1  0.588300  0.670700  0.126500  1.0  0.0873
  H  H1372  1  0.575100  0.698200  0.132200  1.0  0.072
  H  H1373  1  0.597800  0.695900  0.111200  1.0  0.0765
  H  H1374  1  0.564300  0.651800  0.234200  1.0  0.2279
  H  H1375  1  0.059800  0.196100  0.172200  1.0  0.0793
  H  H1376  1  0.109500  0.129300  0.217900  1.0  0.0996
  H  H1377  1  0.109200  0.231500  0.158300  1.0  0.0916
  H  H1378  1  0.129100  0.216000  0.176400  1.0  0.0851
  H  H1379  1  0.137100  0.223300  0.147300  1.0  0.0782
  H  H1380  1  0.088300  0.170700  0.126500  1.0  0.0873
  H  H1381  1  0.075100  0.198200  0.132200  1.0  0.072
  H  H1382  1  0.097800  0.195900  0.111200  1.0  0.0765
  H  H1383  1  0.064300  0.151800  0.234200  1.0  0.2279
  H  H1384  1  0.059800  0.696100  0.672200  1.0  0.0793
  H  H1385  1  0.109500  0.629300  0.717900  1.0  0.0996
  H  H1386  1  0.109200  0.731500  0.658300  1.0  0.0916
  H  H1387  1  0.129100  0.716000  0.676400  1.0  0.0851
  H  H1388  1  0.137100  0.723300  0.647300  1.0  0.0782
  H  H1389  1  0.088300  0.670700  0.626500  1.0  0.0873
  H  H1390  1  0.075100  0.698200  0.632200  1.0  0.072
  H  H1391  1  0.097800  0.695900  0.611200  1.0  0.0765
  H  H1392  1  0.064300  0.651800  0.734200  1.0  0.2279
  H  H1393  1  0.940200  0.172200  0.696100  1.0  0.0794
  H  H1394  1  0.890500  0.217900  0.629300  1.0  0.0992
  H  H1395  1  0.890800  0.158300  0.731500  1.0  0.0898
  H  H1396  1  0.870900  0.176400  0.716000  1.0  0.0839
  H  H1397  1  0.862900  0.147300  0.723300  1.0  0.0757
  H  H1398  1  0.911700  0.126500  0.670700  1.0  0.0895
  H  H1399  1  0.924900  0.132200  0.698200  1.0  0.074
  H  H1400  1  0.902200  0.111200  0.695900  1.0  0.0774
  H  H1401  1  0.935700  0.234200  0.651800  1.0  0.2273
  H  H1402  1  0.940200  0.672200  0.196100  1.0  0.0794
  H  H1403  1  0.890500  0.717900  0.129300  1.0  0.0992
  H  H1404  1  0.890800  0.658300  0.231500  1.0  0.0898
  H  H1405  1  0.870900  0.676400  0.216000  1.0  0.0839
  H  H1406  1  0.862900  0.647300  0.223300  1.0  0.0757
  H  H1407  1  0.911700  0.626500  0.170700  1.0  0.0895
  H  H1408  1  0.924900  0.632200  0.198200  1.0  0.074
  H  H1409  1  0.902200  0.611200  0.195900  1.0  0.0774
  H  H1410  1  0.935700  0.734200  0.151800  1.0  0.2273
  H  H1411  1  0.440200  0.172200  0.196100  1.0  0.0794
  H  H1412  1  0.390500  0.217900  0.129300  1.0  0.0992
  H  H1413  1  0.390800  0.158300  0.231500  1.0  0.0898
  H  H1414  1  0.370900  0.176400  0.216000  1.0  0.0839
  H  H1415  1  0.362900  0.147300  0.223300  1.0  0.0757
  H  H1416  1  0.411700  0.126500  0.170700  1.0  0.0895
  H  H1417  1  0.424900  0.132200  0.198200  1.0  0.074
  H  H1418  1  0.402200  0.111200  0.195900  1.0  0.0774
  H  H1419  1  0.435700  0.234200  0.151800  1.0  0.2273
  H  H1420  1  0.440200  0.672200  0.696100  1.0  0.0794
  H  H1421  1  0.390500  0.717900  0.629300  1.0  0.0992
  H  H1422  1  0.390800  0.658300  0.731500  1.0  0.0898
  H  H1423  1  0.370900  0.676400  0.716000  1.0  0.0839
  H  H1424  1  0.362900  0.647300  0.723300  1.0  0.0757
  H  H1425  1  0.411700  0.626500  0.670700  1.0  0.0895
  H  H1426  1  0.424900  0.632200  0.698200  1.0  0.074
  H  H1427  1  0.402200  0.611200  0.695900  1.0  0.0774
  H  H1428  1  0.435700  0.734200  0.651800  1.0  0.2273
  H  H1429  1  0.059800  0.827800  0.696100  1.0  0.0793
  H  H1430  1  0.109500  0.782100  0.629300  1.0  0.1007
  H  H1431  1  0.109200  0.841700  0.731500  1.0  0.0898
  H  H1432  1  0.129100  0.823600  0.716000  1.0  0.0821
  H  H1433  1  0.137100  0.852700  0.723300  1.0  0.0765
  H  H1434  1  0.088300  0.873500  0.670700  1.0  0.0879
  H  H1435  1  0.075100  0.867800  0.698200  1.0  0.0736
  H  H1436  1  0.097800  0.888800  0.695900  1.0  0.0779
  H  H1437  1  0.064300  0.765800  0.651800  1.0  0.2288
  H  H1438  1  0.059800  0.327800  0.196100  1.0  0.0793
  H  H1439  1  0.109500  0.282100  0.129300  1.0  0.1007
  H  H1440  1  0.109200  0.341700  0.231500  1.0  0.0898
  H  H1441  1  0.129100  0.323600  0.216000  1.0  0.0821
  H  H1442  1  0.137100  0.352700  0.223300  1.0  0.0765
  H  H1443  1  0.088300  0.373500  0.170700  1.0  0.0883
  H  H1444  1  0.075100  0.367800  0.198200  1.0  0.0736
  H  H1445  1  0.097800  0.388800  0.195900  1.0  0.0779
  H  H1446  1  0.064300  0.265800  0.151800  1.0  0.2288
  H  H1447  1  0.559800  0.827800  0.196100  1.0  0.0793
  H  H1448  1  0.609500  0.782100  0.129300  1.0  0.1007
  H  H1449  1  0.609200  0.841700  0.231500  1.0  0.0898
  H  H1450  1  0.629100  0.823600  0.216000  1.0  0.0821
  H  H1451  1  0.637100  0.852700  0.223300  1.0  0.0765
  H  H1452  1  0.588300  0.873500  0.170700  1.0  0.0879
  H  H1453  1  0.575100  0.867800  0.198200  1.0  0.0736
  H  H1454  1  0.597800  0.888800  0.195900  1.0  0.0779
  H  H1455  1  0.564300  0.765800  0.151800  1.0  0.2288
  H  H1456  1  0.559800  0.327800  0.696100  1.0  0.0793
  H  H1457  1  0.609500  0.282100  0.629300  1.0  0.1007
  H  H1458  1  0.609200  0.341700  0.731500  1.0  0.0898
  H  H1459  1  0.629100  0.323600  0.716000  1.0  0.0821
  H  H1460  1  0.637100  0.352700  0.723300  1.0  0.0765
  H  H1461  1  0.588300  0.373500  0.670700  1.0  0.0883
  H  H1462  1  0.575100  0.367800  0.698200  1.0  0.0736
  H  H1463  1  0.597800  0.388800  0.695900  1.0  0.0779
  H  H1464  1  0.564300  0.265800  0.651800  1.0  0.2288
  H  H1465  1  0.940200  0.827800  0.303900  1.0  0.0802
  H  H1466  1  0.890500  0.782100  0.370700  1.0  0.0995
  H  H1467  1  0.890800  0.841700  0.268500  1.0  0.0892
  H  H1468  1  0.870900  0.823600  0.284000  1.0  0.082
  H  H1469  1  0.862900  0.852700  0.276700  1.0  0.0757
  H  H1470  1  0.911700  0.873500  0.329300  1.0  0.0879
  H  H1471  1  0.924900  0.867800  0.301800  1.0  0.0746
  H  H1472  1  0.902200  0.888800  0.304100  1.0  0.0791
  H  H1473  1  0.935700  0.765800  0.348200  1.0  0.2279
  H  H1474  1  0.940200  0.327800  0.803900  1.0  0.0802
  H  H1475  1  0.890500  0.282100  0.870700  1.0  0.0995
  H  H1476  1  0.890800  0.341700  0.768500  1.0  0.0892
  H  H1477  1  0.870900  0.323600  0.784000  1.0  0.082
  H  H1478  1  0.862900  0.352700  0.776700  1.0  0.0757
  H  H1479  1  0.911700  0.373500  0.829300  1.0  0.0882
  H  H1480  1  0.924900  0.367800  0.801800  1.0  0.0746
  H  H1481  1  0.902200  0.388800  0.804100  1.0  0.0791
  H  H1482  1  0.935700  0.265800  0.848200  1.0  0.2279
  H  H1483  1  0.440200  0.827800  0.803900  1.0  0.0802
  H  H1484  1  0.390500  0.782100  0.870700  1.0  0.0995
  H  H1485  1  0.390800  0.841700  0.768500  1.0  0.0892
  H  H1486  1  0.370900  0.823600  0.784000  1.0  0.082
  H  H1487  1  0.362900  0.852700  0.776700  1.0  0.0757
  H  H1488  1  0.411700  0.873500  0.829300  1.0  0.0879
  H  H1489  1  0.424900  0.867800  0.801800  1.0  0.0746
  H  H1490  1  0.402200  0.888800  0.804100  1.0  0.0791
  H  H1491  1  0.435700  0.765800  0.848200  1.0  0.2279
  H  H1492  1  0.440200  0.327800  0.303900  1.0  0.0802
  H  H1493  1  0.390500  0.282100  0.370700  1.0  0.0995
  H  H1494  1  0.390800  0.341700  0.268500  1.0  0.0892
  H  H1495  1  0.370900  0.323600  0.284000  1.0  0.082
  H  H1496  1  0.362900  0.352700  0.276700  1.0  0.0757
  H  H1497  1  0.411700  0.373500  0.329300  1.0  0.0882
  H  H1498  1  0.424900  0.367800  0.301800  1.0  0.0746
  H  H1499  1  0.402200  0.388800  0.304100  1.0  0.0791
  H  H1500  1  0.435700  0.265800  0.348200  1.0  0.2279
  H  H1501  1  0.059800  0.172200  0.303900  1.0  0.0792
  H  H1502  1  0.109500  0.217900  0.370700  1.0  0.1002
  H  H1503  1  0.109200  0.158300  0.268500  1.0  0.0905
  H  H1504  1  0.129100  0.176400  0.284000  1.0  0.084
  H  H1505  1  0.137100  0.147300  0.276700  1.0  0.0766
  H  H1506  1  0.088300  0.126500  0.329300  1.0  0.0898
  H  H1507  1  0.075100  0.132200  0.301800  1.0  0.0739
  H  H1508  1  0.097800  0.111200  0.304100  1.0  0.0757
  H  H1509  1  0.064300  0.234200  0.348200  1.0  0.2288
  H  H1510  1  0.059800  0.672200  0.803900  1.0  0.0792
  H  H1511  1  0.109500  0.717900  0.870700  1.0  0.1002
  H  H1512  1  0.109200  0.658300  0.768500  1.0  0.0905
  H  H1513  1  0.129100  0.676400  0.784000  1.0  0.084
  H  H1514  1  0.137100  0.647300  0.776700  1.0  0.0766
  H  H1515  1  0.088300  0.626500  0.829300  1.0  0.0898
  H  H1516  1  0.075100  0.632200  0.801800  1.0  0.0739
  H  H1517  1  0.097800  0.611200  0.804100  1.0  0.0757
  H  H1518  1  0.064300  0.734200  0.848200  1.0  0.2288
  H  H1519  1  0.559800  0.172200  0.803900  1.0  0.0792
  H  H1520  1  0.609500  0.217900  0.870700  1.0  0.1002
  H  H1521  1  0.609200  0.158300  0.768500  1.0  0.0905
  H  H1522  1  0.629100  0.176400  0.784000  1.0  0.084
  H  H1523  1  0.637100  0.147300  0.776700  1.0  0.0766
  H  H1524  1  0.588300  0.126500  0.829300  1.0  0.0898
  H  H1525  1  0.575100  0.132200  0.801800  1.0  0.0739
  H  H1526  1  0.597800  0.111200  0.804100  1.0  0.0757
  H  H1527  1  0.564300  0.234200  0.848200  1.0  0.2288
  H  H1528  1  0.559800  0.672200  0.303900  1.0  0.0792
  H  H1529  1  0.609500  0.717900  0.370700  1.0  0.1002
  H  H1530  1  0.609200  0.658300  0.268500  1.0  0.0905
  H  H1531  1  0.629100  0.676400  0.284000  1.0  0.084
  H  H1532  1  0.637100  0.647300  0.276700  1.0  0.0766
  H  H1533  1  0.588300  0.626500  0.329300  1.0  0.0898
  H  H1534  1  0.575100  0.632200  0.301800  1.0  0.0739
  H  H1535  1  0.597800  0.611200  0.304100  1.0  0.0757
  H  H1536  1  0.564300  0.734200  0.348200  1.0  0.2288
  H  H1537  1  0.172200  0.303900  0.059800  1.0  0.0801
  H  H1538  1  0.217900  0.370700  0.109500  1.0  0.1012
  H  H1539  1  0.158300  0.268500  0.109200  1.0  0.0901
  H  H1540  1  0.176400  0.284000  0.129100  1.0  0.0823
  H  H1541  1  0.147300  0.276700  0.137100  1.0  0.0765
  H  H1542  1  0.126500  0.329300  0.088300  1.0  0.0877
  H  H1543  1  0.132200  0.301800  0.075100  1.0  0.0748
  H  H1544  1  0.111200  0.304100  0.097800  1.0  0.0773
  H  H1545  1  0.234200  0.348200  0.064300  1.0  0.2273
  H  H1546  1  0.172200  0.803900  0.559800  1.0  0.0801
  H  H1547  1  0.217900  0.870700  0.609500  1.0  0.1012
  H  H1548  1  0.158300  0.768500  0.609200  1.0  0.0901
  H  H1549  1  0.176400  0.784000  0.629100  1.0  0.0823
  H  H1550  1  0.147300  0.776700  0.637100  1.0  0.0765
  H  H1551  1  0.126500  0.829300  0.588300  1.0  0.0877
  H  H1552  1  0.132200  0.801800  0.575100  1.0  0.0748
  H  H1553  1  0.111200  0.804100  0.597800  1.0  0.0773
  H  H1554  1  0.234200  0.848200  0.564300  1.0  0.2273
  H  H1555  1  0.672200  0.303900  0.559800  1.0  0.0801
  H  H1556  1  0.717900  0.370700  0.609500  1.0  0.1012
  H  H1557  1  0.658300  0.268500  0.609200  1.0  0.0901
  H  H1558  1  0.676400  0.284000  0.629100  1.0  0.0823
  H  H1559  1  0.647300  0.276700  0.637100  1.0  0.0765
  H  H1560  1  0.626500  0.329300  0.588300  1.0  0.0877
  H  H1561  1  0.632200  0.301800  0.575100  1.0  0.0748
  H  H1562  1  0.611200  0.304100  0.597800  1.0  0.0773
  H  H1563  1  0.734200  0.348200  0.564300  1.0  0.2273
  H  H1564  1  0.672200  0.803900  0.059800  1.0  0.0801
  H  H1565  1  0.717900  0.870700  0.109500  1.0  0.1012
  H  H1566  1  0.658300  0.768500  0.109200  1.0  0.0901
  H  H1567  1  0.676400  0.784000  0.129100  1.0  0.0823
  H  H1568  1  0.647300  0.776700  0.137100  1.0  0.0765
  H  H1569  1  0.626500  0.829300  0.088300  1.0  0.0877
  H  H1570  1  0.632200  0.801800  0.075100  1.0  0.0748
  H  H1571  1  0.611200  0.804100  0.097800  1.0  0.0773
  H  H1572  1  0.734200  0.848200  0.064300  1.0  0.2273
  H  H1573  1  0.827800  0.303900  0.940200  1.0  0.0806
  H  H1574  1  0.782100  0.370700  0.890500  1.0  0.101
  H  H1575  1  0.841700  0.268500  0.890800  1.0  0.0919
  H  H1576  1  0.823600  0.284000  0.870900  1.0  0.0818
  H  H1577  1  0.852700  0.276700  0.862900  1.0  0.0757
  H  H1578  1  0.873500  0.329300  0.911700  1.0  0.0861
  H  H1579  1  0.867800  0.301800  0.924900  1.0  0.0749
  H  H1580  1  0.888800  0.304100  0.902200  1.0  0.0799
  H  H1581  1  0.765800  0.348200  0.935700  1.0  0.2297
  H  H1582  1  0.827800  0.803900  0.440200  1.0  0.0806
  H  H1583  1  0.782100  0.870700  0.390500  1.0  0.101
  H  H1584  1  0.841700  0.768500  0.390800  1.0  0.0919
  H  H1585  1  0.823600  0.784000  0.370900  1.0  0.0818
  H  H1586  1  0.852700  0.776700  0.362900  1.0  0.0757
  H  H1587  1  0.873500  0.829300  0.411700  1.0  0.0861
  H  H1588  1  0.867800  0.801800  0.424900  1.0  0.0749
  H  H1589  1  0.888800  0.804100  0.402200  1.0  0.0799
  H  H1590  1  0.765800  0.848200  0.435700  1.0  0.2297
  H  H1591  1  0.327800  0.303900  0.440200  1.0  0.0806
  H  H1592  1  0.282100  0.370700  0.390500  1.0  0.101
  H  H1593  1  0.341700  0.268500  0.390800  1.0  0.0919
  H  H1594  1  0.323600  0.284000  0.370900  1.0  0.0818
  H  H1595  1  0.352700  0.276700  0.362900  1.0  0.0757
  H  H1596  1  0.373500  0.329300  0.411700  1.0  0.087
  H  H1597  1  0.367800  0.301800  0.424900  1.0  0.0749
  H  H1598  1  0.388800  0.304100  0.402200  1.0  0.0799
  H  H1599  1  0.265800  0.348200  0.435700  1.0  0.2297
  H  H1600  1  0.327800  0.803900  0.940200  1.0  0.0806
  H  H1601  1  0.282100  0.870700  0.890500  1.0  0.101
  H  H1602  1  0.341700  0.768500  0.890800  1.0  0.0919
  H  H1603  1  0.323600  0.784000  0.870900  1.0  0.0818
  H  H1604  1  0.352700  0.776700  0.862900  1.0  0.0757
  H  H1605  1  0.373500  0.829300  0.911700  1.0  0.087
  H  H1606  1  0.367800  0.801800  0.924900  1.0  0.0749
  H  H1607  1  0.388800  0.804100  0.902200  1.0  0.0799
  H  H1608  1  0.265800  0.848200  0.935700  1.0  0.2297
  H  H1609  1  0.827800  0.696100  0.059800  1.0  0.08
  H  H1610  1  0.782100  0.629300  0.109500  1.0  0.1013
  H  H1611  1  0.841700  0.731500  0.109200  1.0  0.0914
  H  H1612  1  0.823600  0.716000  0.129100  1.0  0.0832
  H  H1613  1  0.852700  0.723300  0.137100  1.0  0.0767
  H  H1614  1  0.873500  0.670700  0.088300  1.0  0.0883
  H  H1615  1  0.867800  0.698200  0.075100  1.0  0.0769
  H  H1616  1  0.888800  0.695900  0.097800  1.0  0.0837
  H  H1617  1  0.765800  0.651800  0.064300  1.0  0.2277
  H  H1618  1  0.827800  0.196100  0.559800  1.0  0.08
  H  H1619  1  0.782100  0.129300  0.609500  1.0  0.1013
  H  H1620  1  0.841700  0.231500  0.609200  1.0  0.0914
  H  H1621  1  0.823600  0.216000  0.629100  1.0  0.0832
  H  H1622  1  0.852700  0.223300  0.637100  1.0  0.0767
  H  H1623  1  0.873500  0.170700  0.588300  1.0  0.0883
  H  H1624  1  0.867800  0.198200  0.575100  1.0  0.0769
  H  H1625  1  0.888800  0.195900  0.597800  1.0  0.0837
  H  H1626  1  0.765800  0.151800  0.564300  1.0  0.2277
  H  H1627  1  0.327800  0.696100  0.559800  1.0  0.08
  H  H1628  1  0.282100  0.629300  0.609500  1.0  0.1013
  H  H1629  1  0.341700  0.731500  0.609200  1.0  0.0914
  H  H1630  1  0.323600  0.716000  0.629100  1.0  0.0832
  H  H1631  1  0.352700  0.723300  0.637100  1.0  0.0767
  H  H1632  1  0.373500  0.670700  0.588300  1.0  0.0887
  H  H1633  1  0.367800  0.698200  0.575100  1.0  0.0769
  H  H1634  1  0.388800  0.695900  0.597800  1.0  0.0837
  H  H1635  1  0.265800  0.651800  0.564300  1.0  0.2277
  H  H1636  1  0.327800  0.196100  0.059800  1.0  0.08
  H  H1637  1  0.282100  0.129300  0.109500  1.0  0.1013
  H  H1638  1  0.341700  0.231500  0.109200  1.0  0.0914
  H  H1639  1  0.323600  0.216000  0.129100  1.0  0.0832
  H  H1640  1  0.352700  0.223300  0.137100  1.0  0.0767
  H  H1641  1  0.373500  0.170700  0.088300  1.0  0.0887
  H  H1642  1  0.367800  0.198200  0.075100  1.0  0.0769
  H  H1643  1  0.388800  0.195900  0.097800  1.0  0.0837
  H  H1644  1  0.265800  0.151800  0.064300  1.0  0.2277
  H  H1645  1  0.172200  0.696100  0.940200  1.0  0.0803
  H  H1646  1  0.217900  0.629300  0.890500  1.0  0.1009
  H  H1647  1  0.158300  0.731500  0.890800  1.0  0.0913
  H  H1648  1  0.176400  0.716000  0.870900  1.0  0.0838
  H  H1649  1  0.147300  0.723300  0.862900  1.0  0.0773
  H  H1650  1  0.126500  0.670700  0.911700  1.0  0.0886
  H  H1651  1  0.132200  0.698200  0.924900  1.0  0.0756
  H  H1652  1  0.111200  0.695900  0.902200  1.0  0.0773
  H  H1653  1  0.234200  0.651800  0.935700  1.0  0.2281
  H  H1654  1  0.172200  0.196100  0.440200  1.0  0.0803
  H  H1655  1  0.217900  0.129300  0.390500  1.0  0.1009
  H  H1656  1  0.158300  0.231500  0.390800  1.0  0.0913
  H  H1657  1  0.176400  0.216000  0.370900  1.0  0.0838
  H  H1658  1  0.147300  0.223300  0.362900  1.0  0.0773
  H  H1659  1  0.126500  0.170700  0.411700  1.0  0.0886
  H  H1660  1  0.132200  0.198200  0.424900  1.0  0.0756
  H  H1661  1  0.111200  0.195900  0.402200  1.0  0.0773
  H  H1662  1  0.234200  0.151800  0.435700  1.0  0.2281
  H  H1663  1  0.672200  0.696100  0.440200  1.0  0.0803
  H  H1664  1  0.717900  0.629300  0.390500  1.0  0.1009
  H  H1665  1  0.658300  0.731500  0.390800  1.0  0.0913
  H  H1666  1  0.676400  0.716000  0.370900  1.0  0.0838
  H  H1667  1  0.647300  0.723300  0.362900  1.0  0.0773
  H  H1668  1  0.626500  0.670700  0.411700  1.0  0.0886
  H  H1669  1  0.632200  0.698200  0.424900  1.0  0.0756
  H  H1670  1  0.611200  0.695900  0.402200  1.0  0.0773
  H  H1671  1  0.734200  0.651800  0.435700  1.0  0.2281
  H  H1672  1  0.672200  0.196100  0.940200  1.0  0.0803
  H  H1673  1  0.717900  0.129300  0.890500  1.0  0.1009
  H  H1674  1  0.658300  0.231500  0.890800  1.0  0.0913
  H  H1675  1  0.676400  0.216000  0.870900  1.0  0.0838
  H  H1676  1  0.647300  0.223300  0.862900  1.0  0.0773
  H  H1677  1  0.626500  0.170700  0.911700  1.0  0.0886
  H  H1678  1  0.632200  0.198200  0.924900  1.0  0.0756
  H  H1679  1  0.611200  0.195900  0.902200  1.0  0.0773
  H  H1680  1  0.734200  0.151800  0.935700  1.0  0.2281
  H  H1681  1  0.303900  0.940200  0.827800  1.0  0.0796
  H  H1682  1  0.370700  0.890500  0.782100  1.0  0.0987
  H  H1683  1  0.268500  0.890800  0.841700  1.0  0.0929
  H  H1684  1  0.284000  0.870900  0.823600  1.0  0.0847
  H  H1685  1  0.276700  0.862900  0.852700  1.0  0.0769
  H  H1686  1  0.329300  0.911700  0.873500  1.0  0.085
  H  H1687  1  0.301800  0.924900  0.867800  1.0  0.0774
  H  H1688  1  0.304100  0.902200  0.888800  1.0  0.0808
  H  H1689  1  0.348200  0.935700  0.765800  1.0  0.2263
  H  H1690  1  0.303900  0.440200  0.327800  1.0  0.0796
  H  H1691  1  0.370700  0.390500  0.282100  1.0  0.0987
  H  H1692  1  0.268500  0.390800  0.341700  1.0  0.0929
  H  H1693  1  0.284000  0.370900  0.323600  1.0  0.0847
  H  H1694  1  0.276700  0.362900  0.352700  1.0  0.0769
  H  H1695  1  0.329300  0.411700  0.373500  1.0  0.0857
  H  H1696  1  0.301800  0.424900  0.367800  1.0  0.0774
  H  H1697  1  0.304100  0.402200  0.388800  1.0  0.0808
  H  H1698  1  0.348200  0.435700  0.265800  1.0  0.2263
  H  H1699  1  0.803900  0.940200  0.327800  1.0  0.0796
  H  H1700  1  0.870700  0.890500  0.282100  1.0  0.0987
  H  H1701  1  0.768500  0.890800  0.341700  1.0  0.0929
  H  H1702  1  0.784000  0.870900  0.323600  1.0  0.0847
  H  H1703  1  0.776700  0.862900  0.352700  1.0  0.0769
  H  H1704  1  0.829300  0.911700  0.373500  1.0  0.0857
  H  H1705  1  0.801800  0.924900  0.367800  1.0  0.0774
  H  H1706  1  0.804100  0.902200  0.388800  1.0  0.0808
  H  H1707  1  0.848200  0.935700  0.265800  1.0  0.2263
  H  H1708  1  0.803900  0.440200  0.827800  1.0  0.0796
  H  H1709  1  0.870700  0.390500  0.782100  1.0  0.0987
  H  H1710  1  0.768500  0.390800  0.841700  1.0  0.0929
  H  H1711  1  0.784000  0.370900  0.823600  1.0  0.0847
  H  H1712  1  0.776700  0.362900  0.852700  1.0  0.0769
  H  H1713  1  0.829300  0.411700  0.873500  1.0  0.085
  H  H1714  1  0.801800  0.424900  0.867800  1.0  0.0774
  H  H1715  1  0.804100  0.402200  0.888800  1.0  0.0808
  H  H1716  1  0.848200  0.435700  0.765800  1.0  0.2263
  H  H1717  1  0.303900  0.059800  0.172200  1.0  0.0794
  H  H1718  1  0.370700  0.109500  0.217900  1.0  0.0981
  H  H1719  1  0.268500  0.109200  0.158300  1.0  0.0913
  H  H1720  1  0.284000  0.129100  0.176400  1.0  0.0856
  H  H1721  1  0.276700  0.137100  0.147300  1.0  0.0773
  H  H1722  1  0.329300  0.088300  0.126500  1.0  0.0864
  H  H1723  1  0.301800  0.075100  0.132200  1.0  0.076
  H  H1724  1  0.304100  0.097800  0.111200  1.0  0.0782
  H  H1725  1  0.348200  0.064300  0.234200  1.0  0.2276
  H  H1726  1  0.303900  0.559800  0.672200  1.0  0.0794
  H  H1727  1  0.370700  0.609500  0.717900  1.0  0.0981
  H  H1728  1  0.268500  0.609200  0.658300  1.0  0.0913
  H  H1729  1  0.284000  0.629100  0.676400  1.0  0.0856
  H  H1730  1  0.276700  0.637100  0.647300  1.0  0.0773
  H  H1731  1  0.329300  0.588300  0.626500  1.0  0.0864
  H  H1732  1  0.301800  0.575100  0.632200  1.0  0.076
  H  H1733  1  0.304100  0.597800  0.611200  1.0  0.0782
  H  H1734  1  0.348200  0.564300  0.734200  1.0  0.2276
  H  H1735  1  0.803900  0.059800  0.672200  1.0  0.0794
  H  H1736  1  0.870700  0.109500  0.717900  1.0  0.0981
  H  H1737  1  0.768500  0.109200  0.658300  1.0  0.0913
  H  H1738  1  0.784000  0.129100  0.676400  1.0  0.0856
  H  H1739  1  0.776700  0.137100  0.647300  1.0  0.0773
  H  H1740  1  0.829300  0.088300  0.626500  1.0  0.0864
  H  H1741  1  0.801800  0.075100  0.632200  1.0  0.076
  H  H1742  1  0.804100  0.097800  0.611200  1.0  0.0782
  H  H1743  1  0.848200  0.064300  0.734200  1.0  0.2276
  H  H1744  1  0.803900  0.559800  0.172200  1.0  0.0794
  H  H1745  1  0.870700  0.609500  0.217900  1.0  0.0981
  H  H1746  1  0.768500  0.609200  0.158300  1.0  0.0913
  H  H1747  1  0.784000  0.629100  0.176400  1.0  0.0856
  H  H1748  1  0.776700  0.637100  0.147300  1.0  0.0773
  H  H1749  1  0.829300  0.588300  0.126500  1.0  0.0864
  H  H1750  1  0.801800  0.575100  0.132200  1.0  0.076
  H  H1751  1  0.804100  0.597800  0.111200  1.0  0.0782
  H  H1752  1  0.848200  0.564300  0.234200  1.0  0.2276
  H  H1753  1  0.696100  0.940200  0.172200  1.0  0.0792
  H  H1754  1  0.629300  0.890500  0.217900  1.0  0.0972
  H  H1755  1  0.731500  0.890800  0.158300  1.0  0.0917
  H  H1756  1  0.716000  0.870900  0.176400  1.0  0.0844
  H  H1757  1  0.723300  0.862900  0.147300  1.0  0.0772
  H  H1758  1  0.670700  0.911700  0.126500  1.0  0.0869
  H  H1759  1  0.698200  0.924900  0.132200  1.0  0.0764
  H  H1760  1  0.695900  0.902200  0.111200  1.0  0.0798
  H  H1761  1  0.651800  0.935700  0.234200  1.0  0.2282
  H  H1762  1  0.696100  0.440200  0.672200  1.0  0.0792
  H  H1763  1  0.629300  0.390500  0.717900  1.0  0.0972
  H  H1764  1  0.731500  0.390800  0.658300  1.0  0.0917
  H  H1765  1  0.716000  0.370900  0.676400  1.0  0.0844
  H  H1766  1  0.723300  0.362900  0.647300  1.0  0.0772
  H  H1767  1  0.670700  0.411700  0.626500  1.0  0.0869
  H  H1768  1  0.698200  0.424900  0.632200  1.0  0.0764
  H  H1769  1  0.695900  0.402200  0.611200  1.0  0.0798
  H  H1770  1  0.651800  0.435700  0.734200  1.0  0.2282
  H  H1771  1  0.196100  0.940200  0.672200  1.0  0.0792
  H  H1772  1  0.129300  0.890500  0.717900  1.0  0.0972
  H  H1773  1  0.231500  0.890800  0.658300  1.0  0.0917
  H  H1774  1  0.216000  0.870900  0.676400  1.0  0.0844
  H  H1775  1  0.223300  0.862900  0.647300  1.0  0.0772
  H  H1776  1  0.170700  0.911700  0.626500  1.0  0.0869
  H  H1777  1  0.198200  0.924900  0.632200  1.0  0.0764
  H  H1778  1  0.195900  0.902200  0.611200  1.0  0.0798
  H  H1779  1  0.151800  0.935700  0.734200  1.0  0.2282
  H  H1780  1  0.196100  0.440200  0.172200  1.0  0.0792
  H  H1781  1  0.129300  0.390500  0.217900  1.0  0.0972
  H  H1782  1  0.231500  0.390800  0.158300  1.0  0.0917
  H  H1783  1  0.216000  0.370900  0.176400  1.0  0.0844
  H  H1784  1  0.223300  0.362900  0.147300  1.0  0.0772
  H  H1785  1  0.170700  0.411700  0.126500  1.0  0.0869
  H  H1786  1  0.198200  0.424900  0.132200  1.0  0.0764
  H  H1787  1  0.195900  0.402200  0.111200  1.0  0.0798
  H  H1788  1  0.151800  0.435700  0.234200  1.0  0.2282
  H  H1789  1  0.696100  0.059800  0.827800  1.0  0.0799
  H  H1790  1  0.629300  0.109500  0.782100  1.0  0.0978
  H  H1791  1  0.731500  0.109200  0.841700  1.0  0.0918
  H  H1792  1  0.716000  0.129100  0.823600  1.0  0.0846
  H  H1793  1  0.723300  0.137100  0.852700  1.0  0.0754
  H  H1794  1  0.670700  0.088300  0.873500  1.0  0.0878
  H  H1795  1  0.698200  0.075100  0.867800  1.0  0.0771
  H  H1796  1  0.695900  0.097800  0.888800  1.0  0.0775
  H  H1797  1  0.651800  0.064300  0.765800  1.0  0.228
  H  H1798  1  0.696100  0.559800  0.327800  1.0  0.0799
  H  H1799  1  0.629300  0.609500  0.282100  1.0  0.0978
  H  H1800  1  0.731500  0.609200  0.341700  1.0  0.0918
  H  H1801  1  0.716000  0.629100  0.323600  1.0  0.0846
  H  H1802  1  0.723300  0.637100  0.352700  1.0  0.0754
  H  H1803  1  0.670700  0.588300  0.373500  1.0  0.0887
  H  H1804  1  0.698200  0.575100  0.367800  1.0  0.0771
  H  H1805  1  0.695900  0.597800  0.388800  1.0  0.0775
  H  H1806  1  0.651800  0.564300  0.265800  1.0  0.228
  H  H1807  1  0.196100  0.059800  0.327800  1.0  0.0799
  H  H1808  1  0.129300  0.109500  0.282100  1.0  0.0978
  H  H1809  1  0.231500  0.109200  0.341700  1.0  0.0918
  H  H1810  1  0.216000  0.129100  0.323600  1.0  0.0846
  H  H1811  1  0.223300  0.137100  0.352700  1.0  0.0754
  H  H1812  1  0.170700  0.088300  0.373500  1.0  0.0887
  H  H1813  1  0.198200  0.075100  0.367800  1.0  0.0771
  H  H1814  1  0.195900  0.097800  0.388800  1.0  0.0775
  H  H1815  1  0.151800  0.064300  0.265800  1.0  0.228
  H  H1816  1  0.196100  0.559800  0.827800  1.0  0.0799
  H  H1817  1  0.129300  0.609500  0.782100  1.0  0.0978
  H  H1818  1  0.231500  0.609200  0.841700  1.0  0.0918
  H  H1819  1  0.216000  0.629100  0.823600  1.0  0.0846
  H  H1820  1  0.223300  0.637100  0.852700  1.0  0.0754
  H  H1821  1  0.170700  0.588300  0.873500  1.0  0.0878
  H  H1822  1  0.198200  0.575100  0.867800  1.0  0.0771
  H  H1823  1  0.195900  0.597800  0.888800  1.0  0.0775
  H  H1824  1  0.151800  0.564300  0.765800  1.0  0.228
  C  C1825  1  0.287250  0.536260  0.192470  1.0  0.6172
  C  C1826  1  0.293290  0.563960  0.183430  1.0  0.0856
  C  C1827  1  0.315330  0.571550  0.189210  1.0  -0.1357
  C  C1828  1  0.322510  0.600950  0.185080  1.0  -0.0653
  C  C1829  1  0.349960  0.612390  0.194860  1.0  0.0563
  C  C1830  1  0.350300  0.632050  0.171790  1.0  -0.0683
  C  C1831  1  0.331570  0.632960  0.151430  1.0  -0.1474
  C  C1832  1  0.314810  0.609430  0.161460  1.0  -0.1208
  C  C1833  1  0.289440  0.601040  0.143960  1.0  -0.0061
  C  C1834  1  0.341340  0.622680  0.218110  1.0  -0.4037
  C  C1835  1  0.372150  0.591360  0.189380  1.0  -0.3397
  C  C1836  1  0.279920  0.573870  0.158790  1.0  -0.0213
  C  C1837  1  0.287250  0.036260  0.692470  1.0  0.6172
  C  C1838  1  0.293290  0.063960  0.683430  1.0  0.0856
  C  C1839  1  0.315330  0.071550  0.689210  1.0  -0.1357
  C  C1840  1  0.322510  0.100950  0.685080  1.0  -0.0653
  C  C1841  1  0.349960  0.112390  0.694860  1.0  0.0563
  C  C1842  1  0.350300  0.132050  0.671790  1.0  -0.0683
  C  C1843  1  0.331570  0.132960  0.651430  1.0  -0.1474
  C  C1844  1  0.314810  0.109430  0.661460  1.0  -0.1208
  C  C1845  1  0.289440  0.101040  0.643960  1.0  -0.0061
  C  C1846  1  0.341340  0.122680  0.718110  1.0  -0.4037
  C  C1847  1  0.372150  0.091360  0.689380  1.0  -0.3397
  C  C1848  1  0.279920  0.073870  0.658790  1.0  -0.0213
  C  C1849  1  0.787250  0.536260  0.692470  1.0  0.6172
  C  C1850  1  0.793290  0.563960  0.683430  1.0  0.0856
  C  C1851  1  0.815330  0.571550  0.689210  1.0  -0.1357
  C  C1852  1  0.822510  0.600950  0.685080  1.0  -0.0653
  C  C1853  1  0.849960  0.612390  0.694860  1.0  0.0563
  C  C1854  1  0.850300  0.632050  0.671790  1.0  -0.0683
  C  C1855  1  0.831570  0.632960  0.651430  1.0  -0.1474
  C  C1856  1  0.814810  0.609430  0.661460  1.0  -0.1208
  C  C1857  1  0.789440  0.601040  0.643960  1.0  -0.0061
  C  C1858  1  0.841340  0.622680  0.718110  1.0  -0.4037
  C  C1859  1  0.872150  0.591360  0.689380  1.0  -0.3397
  C  C1860  1  0.779920  0.573870  0.658790  1.0  -0.0213
  C  C1861  1  0.787250  0.036260  0.192470  1.0  0.6172
  C  C1862  1  0.793290  0.063960  0.183430  1.0  0.0856
  C  C1863  1  0.815330  0.071550  0.189210  1.0  -0.1357
  C  C1864  1  0.822510  0.100950  0.185080  1.0  -0.0653
  C  C1865  1  0.849960  0.112390  0.194860  1.0  0.0563
  C  C1866  1  0.850300  0.132050  0.171790  1.0  -0.0683
  C  C1867  1  0.831570  0.132960  0.151430  1.0  -0.1474
  C  C1868  1  0.814810  0.109430  0.161460  1.0  -0.1208
  C  C1869  1  0.789440  0.101040  0.143960  1.0  -0.0061
  C  C1870  1  0.841340  0.122680  0.218110  1.0  -0.4037
  C  C1871  1  0.872150  0.091360  0.189380  1.0  -0.3397
  C  C1872  1  0.779920  0.073870  0.158790  1.0  -0.0213
  C  C1873  1  0.712750  0.463740  0.192470  1.0  0.6148
  C  C1874  1  0.706710  0.436040  0.183430  1.0  0.0874
  C  C1875  1  0.684670  0.428450  0.189210  1.0  -0.1372
  C  C1876  1  0.677490  0.399050  0.185080  1.0  -0.0631
  C  C1877  1  0.650040  0.387610  0.194860  1.0  0.0557
  C  C1878  1  0.649700  0.367950  0.171790  1.0  -0.0698
  C  C1879  1  0.668430  0.367040  0.151430  1.0  -0.1473
  C  C1880  1  0.685190  0.390570  0.161460  1.0  -0.122
  C  C1881  1  0.710560  0.398960  0.143960  1.0  -0.0034
  C  C1882  1  0.658660  0.377320  0.218110  1.0  -0.4029
  C  C1883  1  0.627850  0.408640  0.189380  1.0  -0.3423
  C  C1884  1  0.720080  0.426130  0.158790  1.0  -0.022
  C  C1885  1  0.712750  0.963740  0.692470  1.0  0.6148
  C  C1886  1  0.706710  0.936040  0.683430  1.0  0.0874
  C  C1887  1  0.684670  0.928450  0.689210  1.0  -0.1372
  C  C1888  1  0.677490  0.899050  0.685080  1.0  -0.0631
  C  C1889  1  0.650040  0.887610  0.694860  1.0  0.0557
  C  C1890  1  0.649700  0.867950  0.671790  1.0  -0.0698
  C  C1891  1  0.668430  0.867040  0.651430  1.0  -0.1473
  C  C1892  1  0.685190  0.890570  0.661460  1.0  -0.122
  C  C1893  1  0.710560  0.898960  0.643960  1.0  -0.0034
  C  C1894  1  0.658660  0.877320  0.718110  1.0  -0.4029
  C  C1895  1  0.627850  0.908640  0.689380  1.0  -0.3423
  C  C1896  1  0.720080  0.926130  0.658790  1.0  -0.022
  C  C1897  1  0.212750  0.463740  0.692470  1.0  0.6148
  C  C1898  1  0.206710  0.436040  0.683430  1.0  0.0874
  C  C1899  1  0.184670  0.428450  0.689210  1.0  -0.1372
  C  C1900  1  0.177490  0.399050  0.685080  1.0  -0.0631
  C  C1901  1  0.150040  0.387610  0.694860  1.0  0.0557
  C  C1902  1  0.149700  0.367950  0.671790  1.0  -0.0698
  C  C1903  1  0.168430  0.367040  0.651430  1.0  -0.1473
  C  C1904  1  0.185190  0.390570  0.661460  1.0  -0.122
  C  C1905  1  0.210560  0.398960  0.643960  1.0  -0.0034
  C  C1906  1  0.158660  0.377320  0.718110  1.0  -0.4029
  C  C1907  1  0.127850  0.408640  0.689380  1.0  -0.3423
  C  C1908  1  0.220080  0.426130  0.658790  1.0  -0.022
  C  C1909  1  0.212750  0.963740  0.192470  1.0  0.6148
  C  C1910  1  0.206710  0.936040  0.183430  1.0  0.0874
  C  C1911  1  0.184670  0.928450  0.189210  1.0  -0.1372
  C  C1912  1  0.177490  0.899050  0.185080  1.0  -0.0631
  C  C1913  1  0.150040  0.887610  0.194860  1.0  0.0557
  C  C1914  1  0.149700  0.867950  0.171790  1.0  -0.0698
  C  C1915  1  0.168430  0.867040  0.151430  1.0  -0.1473
  C  C1916  1  0.185190  0.890570  0.161460  1.0  -0.122
  C  C1917  1  0.210560  0.898960  0.143960  1.0  -0.0034
  C  C1918  1  0.158660  0.877320  0.218110  1.0  -0.4029
  C  C1919  1  0.127850  0.908640  0.189380  1.0  -0.3423
  C  C1920  1  0.220080  0.926130  0.158790  1.0  -0.022
  C  C1921  1  0.712750  0.536260  0.807530  1.0  0.6157
  C  C1922  1  0.706710  0.563960  0.816570  1.0  0.0877
  C  C1923  1  0.684670  0.571550  0.810790  1.0  -0.1369
  C  C1924  1  0.677490  0.600950  0.814920  1.0  -0.0594
  C  C1925  1  0.650040  0.612390  0.805140  1.0  0.0556
  C  C1926  1  0.649700  0.632050  0.828210  1.0  -0.0687
  C  C1927  1  0.668430  0.632960  0.848570  1.0  -0.148
  C  C1928  1  0.685190  0.609430  0.838540  1.0  -0.1225
  C  C1929  1  0.710560  0.601040  0.856040  1.0  -0.0063
  C  C1930  1  0.658660  0.622680  0.781890  1.0  -0.4037
  C  C1931  1  0.627850  0.591360  0.810620  1.0  -0.3416
  C  C1932  1  0.720080  0.573870  0.841210  1.0  -0.0203
  C  C1933  1  0.712750  0.036260  0.307530  1.0  0.6157
  C  C1934  1  0.706710  0.063960  0.316570  1.0  0.0877
  C  C1935  1  0.684670  0.071550  0.310790  1.0  -0.1369
  C  C1936  1  0.677490  0.100950  0.314920  1.0  -0.0594
  C  C1937  1  0.650040  0.112390  0.305140  1.0  0.0556
  C  C1938  1  0.649700  0.132050  0.328210  1.0  -0.0687
  C  C1939  1  0.668430  0.132960  0.348570  1.0  -0.148
  C  C1940  1  0.685190  0.109430  0.338540  1.0  -0.1225
  C  C1941  1  0.710560  0.101040  0.356040  1.0  -0.0063
  C  C1942  1  0.658660  0.122680  0.281890  1.0  -0.4037
  C  C1943  1  0.627850  0.091360  0.310620  1.0  -0.3416
  C  C1944  1  0.720080  0.073870  0.341210  1.0  -0.0203
  C  C1945  1  0.212750  0.536260  0.307530  1.0  0.6157
  C  C1946  1  0.206710  0.563960  0.316570  1.0  0.0877
  C  C1947  1  0.184670  0.571550  0.310790  1.0  -0.1369
  C  C1948  1  0.177490  0.600950  0.314920  1.0  -0.0594
  C  C1949  1  0.150040  0.612390  0.305140  1.0  0.0556
  C  C1950  1  0.149700  0.632050  0.328210  1.0  -0.0687
  C  C1951  1  0.168430  0.632960  0.348570  1.0  -0.148
  C  C1952  1  0.185190  0.609430  0.338540  1.0  -0.1225
  C  C1953  1  0.210560  0.601040  0.356040  1.0  -0.0063
  C  C1954  1  0.158660  0.622680  0.281890  1.0  -0.4037
  C  C1955  1  0.127850  0.591360  0.310620  1.0  -0.3416
  C  C1956  1  0.220080  0.573870  0.341210  1.0  -0.0203
  C  C1957  1  0.212750  0.036260  0.807530  1.0  0.6157
  C  C1958  1  0.206710  0.063960  0.816570  1.0  0.0877
  C  C1959  1  0.184670  0.071550  0.810790  1.0  -0.1369
  C  C1960  1  0.177490  0.100950  0.814920  1.0  -0.0594
  C  C1961  1  0.150040  0.112390  0.805140  1.0  0.0556
  C  C1962  1  0.149700  0.132050  0.828210  1.0  -0.0687
  C  C1963  1  0.168430  0.132960  0.848570  1.0  -0.148
  C  C1964  1  0.185190  0.109430  0.838540  1.0  -0.1225
  C  C1965  1  0.210560  0.101040  0.856040  1.0  -0.0063
  C  C1966  1  0.158660  0.122680  0.781890  1.0  -0.4037
  C  C1967  1  0.127850  0.091360  0.810620  1.0  -0.3416
  C  C1968  1  0.220080  0.073870  0.841210  1.0  -0.0203
  C  C1969  1  0.287250  0.463740  0.807530  1.0  0.6135
  C  C1970  1  0.293290  0.436040  0.816570  1.0  0.0857
  C  C1971  1  0.315330  0.428450  0.810790  1.0  -0.1361
  C  C1972  1  0.322510  0.399050  0.814920  1.0  -0.0612
  C  C1973  1  0.349960  0.387610  0.805140  1.0  0.0551
  C  C1974  1  0.350300  0.367950  0.828210  1.0  -0.0696
  C  C1975  1  0.331570  0.367040  0.848570  1.0  -0.1475
  C  C1976  1  0.314810  0.390570  0.838540  1.0  -0.1217
  C  C1977  1  0.289440  0.398960  0.856040  1.0  -0.005
  C  C1978  1  0.341340  0.377320  0.781890  1.0  -0.4038
  C  C1979  1  0.372150  0.408640  0.810620  1.0  -0.3415
  C  C1980  1  0.279920  0.426130  0.841210  1.0  -0.021
  C  C1981  1  0.287250  0.963740  0.307530  1.0  0.6135
  C  C1982  1  0.293290  0.936040  0.316570  1.0  0.0857
  C  C1983  1  0.315330  0.928450  0.310790  1.0  -0.1361
  C  C1984  1  0.322510  0.899050  0.314920  1.0  -0.0612
  C  C1985  1  0.349960  0.887610  0.305140  1.0  0.0551
  C  C1986  1  0.350300  0.867950  0.328210  1.0  -0.0696
  C  C1987  1  0.331570  0.867040  0.348570  1.0  -0.1475
  C  C1988  1  0.314810  0.890570  0.338540  1.0  -0.1217
  C  C1989  1  0.289440  0.898960  0.356040  1.0  -0.005
  C  C1990  1  0.341340  0.877320  0.281890  1.0  -0.4038
  C  C1991  1  0.372150  0.908640  0.310620  1.0  -0.3415
  C  C1992  1  0.279920  0.926130  0.341210  1.0  -0.021
  C  C1993  1  0.787250  0.463740  0.307530  1.0  0.6135
  C  C1994  1  0.793290  0.436040  0.316570  1.0  0.0857
  C  C1995  1  0.815330  0.428450  0.310790  1.0  -0.1361
  C  C1996  1  0.822510  0.399050  0.314920  1.0  -0.0612
  C  C1997  1  0.849960  0.387610  0.305140  1.0  0.0551
  C  C1998  1  0.850300  0.367950  0.328210  1.0  -0.0696
  C  C1999  1  0.831570  0.367040  0.348570  1.0  -0.1475
  C  C2000  1  0.814810  0.390570  0.338540  1.0  -0.1217
  C  C2001  1  0.789440  0.398960  0.356040  1.0  -0.005
  C  C2002  1  0.841340  0.377320  0.281890  1.0  -0.4038
  C  C2003  1  0.872150  0.408640  0.310620  1.0  -0.3415
  C  C2004  1  0.779920  0.426130  0.341210  1.0  -0.021
  C  C2005  1  0.787250  0.963740  0.807530  1.0  0.6135
  C  C2006  1  0.793290  0.936040  0.816570  1.0  0.0857
  C  C2007  1  0.815330  0.928450  0.810790  1.0  -0.1361
  C  C2008  1  0.822510  0.899050  0.814920  1.0  -0.0612
  C  C2009  1  0.849960  0.887610  0.805140  1.0  0.0551
  C  C2010  1  0.850300  0.867950  0.828210  1.0  -0.0696
  C  C2011  1  0.831570  0.867040  0.848570  1.0  -0.1475
  C  C2012  1  0.814810  0.890570  0.838540  1.0  -0.1217
  C  C2013  1  0.789440  0.898960  0.856040  1.0  -0.005
  C  C2014  1  0.841340  0.877320  0.781890  1.0  -0.4038
  C  C2015  1  0.872150  0.908640  0.810620  1.0  -0.3415
  C  C2016  1  0.779920  0.926130  0.841210  1.0  -0.021
  C  C2017  1  0.192470  0.287250  0.536260  1.0  0.6131
  C  C2018  1  0.183430  0.293290  0.563960  1.0  0.0922
  C  C2019  1  0.189210  0.315330  0.571550  1.0  -0.1338
  C  C2020  1  0.185080  0.322510  0.600950  1.0  -0.0595
  C  C2021  1  0.194860  0.349960  0.612390  1.0  0.0564
  C  C2022  1  0.171790  0.350300  0.632050  1.0  -0.0702
  C  C2023  1  0.151430  0.331570  0.632960  1.0  -0.1501
  C  C2024  1  0.161460  0.314810  0.609430  1.0  -0.123
  C  C2025  1  0.143960  0.289440  0.601040  1.0  -0.0034
  C  C2026  1  0.218110  0.341340  0.622680  1.0  -0.4032
  C  C2027  1  0.189380  0.372150  0.591360  1.0  -0.3387
  C  C2028  1  0.158790  0.279920  0.573870  1.0  -0.0195
  C  C2029  1  0.192470  0.787250  0.036260  1.0  0.6131
  C  C2030  1  0.183430  0.793290  0.063960  1.0  0.0922
  C  C2031  1  0.189210  0.815330  0.071550  1.0  -0.1338
  C  C2032  1  0.185080  0.822510  0.100950  1.0  -0.0595
  C  C2033  1  0.194860  0.849960  0.112390  1.0  0.0564
  C  C2034  1  0.171790  0.850300  0.132050  1.0  -0.0702
  C  C2035  1  0.151430  0.831570  0.132960  1.0  -0.1501
  C  C2036  1  0.161460  0.814810  0.109430  1.0  -0.123
  C  C2037  1  0.143960  0.789440  0.101040  1.0  -0.0034
  C  C2038  1  0.218110  0.841340  0.122680  1.0  -0.4032
  C  C2039  1  0.189380  0.872150  0.091360  1.0  -0.3387
  C  C2040  1  0.158790  0.779920  0.073870  1.0  -0.0195
  C  C2041  1  0.692470  0.287250  0.036260  1.0  0.6131
  C  C2042  1  0.683430  0.293290  0.063960  1.0  0.0922
  C  C2043  1  0.689210  0.315330  0.071550  1.0  -0.1338
  C  C2044  1  0.685080  0.322510  0.100950  1.0  -0.0595
  C  C2045  1  0.694860  0.349960  0.112390  1.0  0.0564
  C  C2046  1  0.671790  0.350300  0.132050  1.0  -0.0702
  C  C2047  1  0.651430  0.331570  0.132960  1.0  -0.1501
  C  C2048  1  0.661460  0.314810  0.109430  1.0  -0.123
  C  C2049  1  0.643960  0.289440  0.101040  1.0  -0.0034
  C  C2050  1  0.718110  0.341340  0.122680  1.0  -0.4032
  C  C2051  1  0.689380  0.372150  0.091360  1.0  -0.3387
  C  C2052  1  0.658790  0.279920  0.073870  1.0  -0.0195
  C  C2053  1  0.692470  0.787250  0.536260  1.0  0.6131
  C  C2054  1  0.683430  0.793290  0.563960  1.0  0.0922
  C  C2055  1  0.689210  0.815330  0.571550  1.0  -0.1338
  C  C2056  1  0.685080  0.822510  0.600950  1.0  -0.0595
  C  C2057  1  0.694860  0.849960  0.612390  1.0  0.0564
  C  C2058  1  0.671790  0.850300  0.632050  1.0  -0.0702
  C  C2059  1  0.651430  0.831570  0.632960  1.0  -0.1501
  C  C2060  1  0.661460  0.814810  0.609430  1.0  -0.123
  C  C2061  1  0.643960  0.789440  0.601040  1.0  -0.0034
  C  C2062  1  0.718110  0.841340  0.622680  1.0  -0.4032
  C  C2063  1  0.689380  0.872150  0.591360  1.0  -0.3387
  C  C2064  1  0.658790  0.779920  0.573870  1.0  -0.0195
  C  C2065  1  0.192470  0.712750  0.463740  1.0  0.6148
  C  C2066  1  0.183430  0.706710  0.436040  1.0  0.0862
  C  C2067  1  0.189210  0.684670  0.428450  1.0  -0.134
  C  C2068  1  0.185080  0.677490  0.399050  1.0  -0.0605
  C  C2069  1  0.194860  0.650040  0.387610  1.0  0.0558
  C  C2070  1  0.171790  0.649700  0.367950  1.0  -0.0707
  C  C2071  1  0.151430  0.668430  0.367040  1.0  -0.1504
  C  C2072  1  0.161460  0.685190  0.390570  1.0  -0.1231
  C  C2073  1  0.143960  0.710560  0.398960  1.0  -0.0058
  C  C2074  1  0.218110  0.658660  0.377320  1.0  -0.404
  C  C2075  1  0.189380  0.627850  0.408640  1.0  -0.3402
  C  C2076  1  0.158790  0.720080  0.426130  1.0  -0.0216
  C  C2077  1  0.192470  0.212750  0.963740  1.0  0.6148
  C  C2078  1  0.183430  0.206710  0.936040  1.0  0.0862
  C  C2079  1  0.189210  0.184670  0.928450  1.0  -0.134
  C  C2080  1  0.185080  0.177490  0.899050  1.0  -0.0605
  C  C2081  1  0.194860  0.150040  0.887610  1.0  0.0558
  C  C2082  1  0.171790  0.149700  0.867950  1.0  -0.0707
  C  C2083  1  0.151430  0.168430  0.867040  1.0  -0.1504
  C  C2084  1  0.161460  0.185190  0.890570  1.0  -0.1231
  C  C2085  1  0.143960  0.210560  0.898960  1.0  -0.0058
  C  C2086  1  0.218110  0.158660  0.877320  1.0  -0.404
  C  C2087  1  0.189380  0.127850  0.908640  1.0  -0.3402
  C  C2088  1  0.158790  0.220080  0.926130  1.0  -0.0216
  C  C2089  1  0.692470  0.712750  0.963740  1.0  0.6148
  C  C2090  1  0.683430  0.706710  0.936040  1.0  0.0862
  C  C2091  1  0.689210  0.684670  0.928450  1.0  -0.134
  C  C2092  1  0.685080  0.677490  0.899050  1.0  -0.0605
  C  C2093  1  0.694860  0.650040  0.887610  1.0  0.0558
  C  C2094  1  0.671790  0.649700  0.867950  1.0  -0.0707
  C  C2095  1  0.651430  0.668430  0.867040  1.0  -0.1504
  C  C2096  1  0.661460  0.685190  0.890570  1.0  -0.1231
  C  C2097  1  0.643960  0.710560  0.898960  1.0  -0.0058
  C  C2098  1  0.718110  0.658660  0.877320  1.0  -0.404
  C  C2099  1  0.689380  0.627850  0.908640  1.0  -0.3402
  C  C2100  1  0.658790  0.720080  0.926130  1.0  -0.0216
  C  C2101  1  0.692470  0.212750  0.463740  1.0  0.6148
  C  C2102  1  0.683430  0.206710  0.436040  1.0  0.0862
  C  C2103  1  0.689210  0.184670  0.428450  1.0  -0.134
  C  C2104  1  0.685080  0.177490  0.399050  1.0  -0.0605
  C  C2105  1  0.694860  0.150040  0.387610  1.0  0.0558
  C  C2106  1  0.671790  0.149700  0.367950  1.0  -0.0707
  C  C2107  1  0.651430  0.168430  0.367040  1.0  -0.1504
  C  C2108  1  0.661460  0.185190  0.390570  1.0  -0.1231
  C  C2109  1  0.643960  0.210560  0.398960  1.0  -0.0058
  C  C2110  1  0.718110  0.158660  0.377320  1.0  -0.404
  C  C2111  1  0.689380  0.127850  0.408640  1.0  -0.3402
  C  C2112  1  0.658790  0.220080  0.426130  1.0  -0.0216
  C  C2113  1  0.807530  0.712750  0.536260  1.0  0.6138
  C  C2114  1  0.816570  0.706710  0.563960  1.0  0.087
  C  C2115  1  0.810790  0.684670  0.571550  1.0  -0.1341
  C  C2116  1  0.814920  0.677490  0.600950  1.0  -0.0614
  C  C2117  1  0.805140  0.650040  0.612390  1.0  0.0572
  C  C2118  1  0.828210  0.649700  0.632050  1.0  -0.0698
  C  C2119  1  0.848570  0.668430  0.632960  1.0  -0.1504
  C  C2120  1  0.838540  0.685190  0.609430  1.0  -0.1231
  C  C2121  1  0.856040  0.710560  0.601040  1.0  -0.0046
  C  C2122  1  0.781890  0.658660  0.622680  1.0  -0.4055
  C  C2123  1  0.810620  0.627850  0.591360  1.0  -0.338
  C  C2124  1  0.841210  0.720080  0.573870  1.0  -0.0224
  C  C2125  1  0.807530  0.212750  0.036260  1.0  0.6138
  C  C2126  1  0.816570  0.206710  0.063960  1.0  0.087
  C  C2127  1  0.810790  0.184670  0.071550  1.0  -0.1341
  C  C2128  1  0.814920  0.177490  0.100950  1.0  -0.0614
  C  C2129  1  0.805140  0.150040  0.112390  1.0  0.0572
  C  C2130  1  0.828210  0.149700  0.132050  1.0  -0.0698
  C  C2131  1  0.848570  0.168430  0.132960  1.0  -0.1504
  C  C2132  1  0.838540  0.185190  0.109430  1.0  -0.1231
  C  C2133  1  0.856040  0.210560  0.101040  1.0  -0.0046
  C  C2134  1  0.781890  0.158660  0.122680  1.0  -0.4055
  C  C2135  1  0.810620  0.127850  0.091360  1.0  -0.338
  C  C2136  1  0.841210  0.220080  0.073870  1.0  -0.0224
  C  C2137  1  0.307530  0.712750  0.036260  1.0  0.6138
  C  C2138  1  0.316570  0.706710  0.063960  1.0  0.087
  C  C2139  1  0.310790  0.684670  0.071550  1.0  -0.1341
  C  C2140  1  0.314920  0.677490  0.100950  1.0  -0.0614
  C  C2141  1  0.305140  0.650040  0.112390  1.0  0.0572
  C  C2142  1  0.328210  0.649700  0.132050  1.0  -0.0698
  C  C2143  1  0.348570  0.668430  0.132960  1.0  -0.1504
  C  C2144  1  0.338540  0.685190  0.109430  1.0  -0.1231
  C  C2145  1  0.356040  0.710560  0.101040  1.0  -0.0046
  C  C2146  1  0.281890  0.658660  0.122680  1.0  -0.4055
  C  C2147  1  0.310620  0.627850  0.091360  1.0  -0.338
  C  C2148  1  0.341210  0.720080  0.073870  1.0  -0.0224
  C  C2149  1  0.307530  0.212750  0.536260  1.0  0.6138
  C  C2150  1  0.316570  0.206710  0.563960  1.0  0.087
  C  C2151  1  0.310790  0.184670  0.571550  1.0  -0.1341
  C  C2152  1  0.314920  0.177490  0.600950  1.0  -0.0614
  C  C2153  1  0.305140  0.150040  0.612390  1.0  0.0572
  C  C2154  1  0.328210  0.149700  0.632050  1.0  -0.0698
  C  C2155  1  0.348570  0.168430  0.632960  1.0  -0.1504
  C  C2156  1  0.338540  0.185190  0.609430  1.0  -0.1231
  C  C2157  1  0.356040  0.210560  0.601040  1.0  -0.0046
  C  C2158  1  0.281890  0.158660  0.622680  1.0  -0.4055
  C  C2159  1  0.310620  0.127850  0.591360  1.0  -0.338
  C  C2160  1  0.341210  0.220080  0.573870  1.0  -0.0224
  C  C2161  1  0.807530  0.287250  0.463740  1.0  0.6146
  C  C2162  1  0.816570  0.293290  0.436040  1.0  0.0902
  C  C2163  1  0.810790  0.315330  0.428450  1.0  -0.1344
  C  C2164  1  0.814920  0.322510  0.399050  1.0  -0.0614
  C  C2165  1  0.805140  0.349960  0.387610  1.0  0.0563
  C  C2166  1  0.828210  0.350300  0.367950  1.0  -0.0704
  C  C2167  1  0.848570  0.331570  0.367040  1.0  -0.1499
  C  C2168  1  0.838540  0.314810  0.390570  1.0  -0.1234
  C  C2169  1  0.856040  0.289440  0.398960  1.0  -0.0024
  C  C2170  1  0.781890  0.341340  0.377320  1.0  -0.4059
  C  C2171  1  0.810620  0.372150  0.408640  1.0  -0.3416
  C  C2172  1  0.841210  0.279920  0.426130  1.0  -0.0194
  C  C2173  1  0.807530  0.787250  0.963740  1.0  0.6146
  C  C2174  1  0.816570  0.793290  0.936040  1.0  0.0902
  C  C2175  1  0.810790  0.815330  0.928450  1.0  -0.1344
  C  C2176  1  0.814920  0.822510  0.899050  1.0  -0.0614
  C  C2177  1  0.805140  0.849960  0.887610  1.0  0.0563
  C  C2178  1  0.828210  0.850300  0.867950  1.0  -0.0704
  C  C2179  1  0.848570  0.831570  0.867040  1.0  -0.1499
  C  C2180  1  0.838540  0.814810  0.890570  1.0  -0.1234
  C  C2181  1  0.856040  0.789440  0.898960  1.0  -0.0024
  C  C2182  1  0.781890  0.841340  0.877320  1.0  -0.4059
  C  C2183  1  0.810620  0.872150  0.908640  1.0  -0.3416
  C  C2184  1  0.841210  0.779920  0.926130  1.0  -0.0194
  C  C2185  1  0.307530  0.287250  0.963740  1.0  0.6146
  C  C2186  1  0.316570  0.293290  0.936040  1.0  0.0902
  C  C2187  1  0.310790  0.315330  0.928450  1.0  -0.1344
  C  C2188  1  0.314920  0.322510  0.899050  1.0  -0.0614
  C  C2189  1  0.305140  0.349960  0.887610  1.0  0.0563
  C  C2190  1  0.328210  0.350300  0.867950  1.0  -0.0704
  C  C2191  1  0.348570  0.331570  0.867040  1.0  -0.1499
  C  C2192  1  0.338540  0.314810  0.890570  1.0  -0.1234
  C  C2193  1  0.356040  0.289440  0.898960  1.0  -0.0024
  C  C2194  1  0.281890  0.341340  0.877320  1.0  -0.4059
  C  C2195  1  0.310620  0.372150  0.908640  1.0  -0.3416
  C  C2196  1  0.341210  0.279920  0.926130  1.0  -0.0194
  C  C2197  1  0.307530  0.787250  0.463740  1.0  0.6146
  C  C2198  1  0.316570  0.793290  0.436040  1.0  0.0902
  C  C2199  1  0.310790  0.815330  0.428450  1.0  -0.1344
  C  C2200  1  0.314920  0.822510  0.399050  1.0  -0.0614
  C  C2201  1  0.305140  0.849960  0.387610  1.0  0.0563
  C  C2202  1  0.328210  0.850300  0.367950  1.0  -0.0704
  C  C2203  1  0.348570  0.831570  0.367040  1.0  -0.1499
  C  C2204  1  0.338540  0.814810  0.390570  1.0  -0.1234
  C  C2205  1  0.356040  0.789440  0.398960  1.0  -0.0024
  C  C2206  1  0.281890  0.841340  0.377320  1.0  -0.4059
  C  C2207  1  0.310620  0.872150  0.408640  1.0  -0.3416
  C  C2208  1  0.341210  0.779920  0.426130  1.0  -0.0194
  C  C2209  1  0.536260  0.192470  0.287250  1.0  0.6144
  C  C2210  1  0.563960  0.183430  0.293290  1.0  0.0885
  C  C2211  1  0.571550  0.189210  0.315330  1.0  -0.1348
  C  C2212  1  0.600950  0.185080  0.322510  1.0  -0.0585
  C  C2213  1  0.612390  0.194860  0.349960  1.0  0.056
  C  C2214  1  0.632050  0.171790  0.350300  1.0  -0.0703
  C  C2215  1  0.632960  0.151430  0.331570  1.0  -0.1507
  C  C2216  1  0.609430  0.161460  0.314810  1.0  -0.1219
  C  C2217  1  0.601040  0.143960  0.289440  1.0  -0.0007
  C  C2218  1  0.622680  0.218110  0.341340  1.0  -0.4032
  C  C2219  1  0.591360  0.189380  0.372150  1.0  -0.3409
  C  C2220  1  0.573870  0.158790  0.279920  1.0  -0.0168
  C  C2221  1  0.536260  0.692470  0.787250  1.0  0.6144
  C  C2222  1  0.563960  0.683430  0.793290  1.0  0.0885
  C  C2223  1  0.571550  0.689210  0.815330  1.0  -0.1348
  C  C2224  1  0.600950  0.685080  0.822510  1.0  -0.0585
  C  C2225  1  0.612390  0.694860  0.849960  1.0  0.056
  C  C2226  1  0.632050  0.671790  0.850300  1.0  -0.0703
  C  C2227  1  0.632960  0.651430  0.831570  1.0  -0.1507
  C  C2228  1  0.609430  0.661460  0.814810  1.0  -0.1219
  C  C2229  1  0.601040  0.643960  0.789440  1.0  -0.0007
  C  C2230  1  0.622680  0.718110  0.841340  1.0  -0.4032
  C  C2231  1  0.591360  0.689380  0.872150  1.0  -0.3409
  C  C2232  1  0.573870  0.658790  0.779920  1.0  -0.0168
  C  C2233  1  0.036260  0.192470  0.787250  1.0  0.6144
  C  C2234  1  0.063960  0.183430  0.793290  1.0  0.0885
  C  C2235  1  0.071550  0.189210  0.815330  1.0  -0.1348
  C  C2236  1  0.100950  0.185080  0.822510  1.0  -0.0585
  C  C2237  1  0.112390  0.194860  0.849960  1.0  0.056
  C  C2238  1  0.132050  0.171790  0.850300  1.0  -0.0703
  C  C2239  1  0.132960  0.151430  0.831570  1.0  -0.1507
  C  C2240  1  0.109430  0.161460  0.814810  1.0  -0.1219
  C  C2241  1  0.101040  0.143960  0.789440  1.0  -0.0007
  C  C2242  1  0.122680  0.218110  0.841340  1.0  -0.4032
  C  C2243  1  0.091360  0.189380  0.872150  1.0  -0.3409
  C  C2244  1  0.073870  0.158790  0.779920  1.0  -0.0168
  C  C2245  1  0.036260  0.692470  0.287250  1.0  0.6144
  C  C2246  1  0.063960  0.683430  0.293290  1.0  0.0885
  C  C2247  1  0.071550  0.689210  0.315330  1.0  -0.1348
  C  C2248  1  0.100950  0.685080  0.322510  1.0  -0.0585
  C  C2249  1  0.112390  0.694860  0.349960  1.0  0.056
  C  C2250  1  0.132050  0.671790  0.350300  1.0  -0.0703
  C  C2251  1  0.132960  0.651430  0.331570  1.0  -0.1507
  C  C2252  1  0.109430  0.661460  0.314810  1.0  -0.1219
  C  C2253  1  0.101040  0.643960  0.289440  1.0  -0.0007
  C  C2254  1  0.122680  0.718110  0.341340  1.0  -0.4032
  C  C2255  1  0.091360  0.689380  0.372150  1.0  -0.3409
  C  C2256  1  0.073870  0.658790  0.279920  1.0  -0.0168
  C  C2257  1  0.463740  0.192470  0.712750  1.0  0.6141
  C  C2258  1  0.436040  0.183430  0.706710  1.0  0.0876
  C  C2259  1  0.428450  0.189210  0.684670  1.0  -0.1339
  C  C2260  1  0.399050  0.185080  0.677490  1.0  -0.0602
  C  C2261  1  0.387610  0.194860  0.650040  1.0  0.0569
  C  C2262  1  0.367950  0.171790  0.649700  1.0  -0.069
  C  C2263  1  0.367040  0.151430  0.668430  1.0  -0.1514
  C  C2264  1  0.390570  0.161460  0.685190  1.0  -0.1223
  C  C2265  1  0.398960  0.143960  0.710560  1.0  -0.0029
  C  C2266  1  0.377320  0.218110  0.658660  1.0  -0.4034
  C  C2267  1  0.408640  0.189380  0.627850  1.0  -0.3379
  C  C2268  1  0.426130  0.158790  0.720080  1.0  -0.017
  C  C2269  1  0.463740  0.692470  0.212750  1.0  0.6141
  C  C2270  1  0.436040  0.683430  0.206710  1.0  0.0876
  C  C2271  1  0.428450  0.689210  0.184670  1.0  -0.1339
  C  C2272  1  0.399050  0.685080  0.177490  1.0  -0.0602
  C  C2273  1  0.387610  0.694860  0.150040  1.0  0.0569
  C  C2274  1  0.367950  0.671790  0.149700  1.0  -0.069
  C  C2275  1  0.367040  0.651430  0.168430  1.0  -0.1514
  C  C2276  1  0.390570  0.661460  0.185190  1.0  -0.1223
  C  C2277  1  0.398960  0.643960  0.210560  1.0  -0.0029
  C  C2278  1  0.377320  0.718110  0.158660  1.0  -0.4034
  C  C2279  1  0.408640  0.689380  0.127850  1.0  -0.3379
  C  C2280  1  0.426130  0.658790  0.220080  1.0  -0.017
  C  C2281  1  0.963740  0.192470  0.212750  1.0  0.6141
  C  C2282  1  0.936040  0.183430  0.206710  1.0  0.0876
  C  C2283  1  0.928450  0.189210  0.184670  1.0  -0.1339
  C  C2284  1  0.899050  0.185080  0.177490  1.0  -0.0602
  C  C2285  1  0.887610  0.194860  0.150040  1.0  0.0569
  C  C2286  1  0.867950  0.171790  0.149700  1.0  -0.069
  C  C2287  1  0.867040  0.151430  0.168430  1.0  -0.1514
  C  C2288  1  0.890570  0.161460  0.185190  1.0  -0.1223
  C  C2289  1  0.898960  0.143960  0.210560  1.0  -0.0029
  C  C2290  1  0.877320  0.218110  0.158660  1.0  -0.4034
  C  C2291  1  0.908640  0.189380  0.127850  1.0  -0.3379
  C  C2292  1  0.926130  0.158790  0.220080  1.0  -0.017
  C  C2293  1  0.963740  0.692470  0.712750  1.0  0.6141
  C  C2294  1  0.936040  0.683430  0.706710  1.0  0.0876
  C  C2295  1  0.928450  0.689210  0.684670  1.0  -0.1339
  C  C2296  1  0.899050  0.685080  0.677490  1.0  -0.0602
  C  C2297  1  0.887610  0.694860  0.650040  1.0  0.0569
  C  C2298  1  0.867950  0.671790  0.649700  1.0  -0.069
  C  C2299  1  0.867040  0.651430  0.668430  1.0  -0.1514
  C  C2300  1  0.890570  0.661460  0.685190  1.0  -0.1223
  C  C2301  1  0.898960  0.643960  0.710560  1.0  -0.0029
  C  C2302  1  0.877320  0.718110  0.658660  1.0  -0.4034
  C  C2303  1  0.908640  0.689380  0.627850  1.0  -0.3379
  C  C2304  1  0.926130  0.658790  0.720080  1.0  -0.017
  C  C2305  1  0.536260  0.807530  0.712750  1.0  0.6081
  C  C2306  1  0.563960  0.816570  0.706710  1.0  0.0885
  C  C2307  1  0.571550  0.810790  0.684670  1.0  -0.1346
  C  C2308  1  0.600950  0.814920  0.677490  1.0  -0.0598
  C  C2309  1  0.612390  0.805140  0.650040  1.0  0.0566
  C  C2310  1  0.632050  0.828210  0.649700  1.0  -0.0696
  C  C2311  1  0.632960  0.848570  0.668430  1.0  -0.15
  C  C2312  1  0.609430  0.838540  0.685190  1.0  -0.121
  C  C2313  1  0.601040  0.856040  0.710560  1.0  -0.0042
  C  C2314  1  0.622680  0.781890  0.658660  1.0  -0.4045
  C  C2315  1  0.591360  0.810620  0.627850  1.0  -0.3397
  C  C2316  1  0.573870  0.841210  0.720080  1.0  -0.0177
  C  C2317  1  0.536260  0.307530  0.212750  1.0  0.6081
  C  C2318  1  0.563960  0.316570  0.206710  1.0  0.0885
  C  C2319  1  0.571550  0.310790  0.184670  1.0  -0.1346
  C  C2320  1  0.600950  0.314920  0.177490  1.0  -0.0598
  C  C2321  1  0.612390  0.305140  0.150040  1.0  0.0566
  C  C2322  1  0.632050  0.328210  0.149700  1.0  -0.0696
  C  C2323  1  0.632960  0.348570  0.168430  1.0  -0.15
  C  C2324  1  0.609430  0.338540  0.185190  1.0  -0.121
  C  C2325  1  0.601040  0.356040  0.210560  1.0  -0.0042
  C  C2326  1  0.622680  0.281890  0.158660  1.0  -0.4045
  C  C2327  1  0.591360  0.310620  0.127850  1.0  -0.3397
  C  C2328  1  0.573870  0.341210  0.220080  1.0  -0.0177
  C  C2329  1  0.036260  0.807530  0.212750  1.0  0.6081
  C  C2330  1  0.063960  0.816570  0.206710  1.0  0.0885
  C  C2331  1  0.071550  0.810790  0.184670  1.0  -0.1346
  C  C2332  1  0.100950  0.814920  0.177490  1.0  -0.0598
  C  C2333  1  0.112390  0.805140  0.150040  1.0  0.0566
  C  C2334  1  0.132050  0.828210  0.149700  1.0  -0.0696
  C  C2335  1  0.132960  0.848570  0.168430  1.0  -0.15
  C  C2336  1  0.109430  0.838540  0.185190  1.0  -0.121
  C  C2337  1  0.101040  0.856040  0.210560  1.0  -0.0042
  C  C2338  1  0.122680  0.781890  0.158660  1.0  -0.4045
  C  C2339  1  0.091360  0.810620  0.127850  1.0  -0.3397
  C  C2340  1  0.073870  0.841210  0.220080  1.0  -0.0177
  C  C2341  1  0.036260  0.307530  0.712750  1.0  0.6081
  C  C2342  1  0.063960  0.316570  0.706710  1.0  0.0885
  C  C2343  1  0.071550  0.310790  0.684670  1.0  -0.1346
  C  C2344  1  0.100950  0.314920  0.677490  1.0  -0.0598
  C  C2345  1  0.112390  0.305140  0.650040  1.0  0.0566
  C  C2346  1  0.132050  0.328210  0.649700  1.0  -0.0696
  C  C2347  1  0.132960  0.348570  0.668430  1.0  -0.15
  C  C2348  1  0.109430  0.338540  0.685190  1.0  -0.121
  C  C2349  1  0.101040  0.356040  0.710560  1.0  -0.0042
  C  C2350  1  0.122680  0.281890  0.658660  1.0  -0.4045
  C  C2351  1  0.091360  0.310620  0.627850  1.0  -0.3397
  C  C2352  1  0.073870  0.341210  0.720080  1.0  -0.0177
  C  C2353  1  0.463740  0.807530  0.287250  1.0  0.6086
  C  C2354  1  0.436040  0.816570  0.293290  1.0  0.0876
  C  C2355  1  0.428450  0.810790  0.315330  1.0  -0.1333
  C  C2356  1  0.399050  0.814920  0.322510  1.0  -0.0593
  C  C2357  1  0.387610  0.805140  0.349960  1.0  0.0564
  C  C2358  1  0.367950  0.828210  0.350300  1.0  -0.0692
  C  C2359  1  0.367040  0.848570  0.331570  1.0  -0.1512
  C  C2360  1  0.390570  0.838540  0.314810  1.0  -0.1219
  C  C2361  1  0.398960  0.856040  0.289440  1.0  -0.0061
  C  C2362  1  0.377320  0.781890  0.341340  1.0  -0.4021
  C  C2363  1  0.408640  0.810620  0.372150  1.0  -0.3407
  C  C2364  1  0.426130  0.841210  0.279920  1.0  -0.0188
  C  C2365  1  0.463740  0.307530  0.787250  1.0  0.6086
  C  C2366  1  0.436040  0.316570  0.793290  1.0  0.0876
  C  C2367  1  0.428450  0.310790  0.815330  1.0  -0.1333
  C  C2368  1  0.399050  0.314920  0.822510  1.0  -0.0593
  C  C2369  1  0.387610  0.305140  0.849960  1.0  0.0564
  C  C2370  1  0.367950  0.328210  0.850300  1.0  -0.0692
  C  C2371  1  0.367040  0.348570  0.831570  1.0  -0.1512
  C  C2372  1  0.390570  0.338540  0.814810  1.0  -0.1219
  C  C2373  1  0.398960  0.356040  0.789440  1.0  -0.0061
  C  C2374  1  0.377320  0.281890  0.841340  1.0  -0.4021
  C  C2375  1  0.408640  0.310620  0.872150  1.0  -0.3407
  C  C2376  1  0.426130  0.341210  0.779920  1.0  -0.0188
  C  C2377  1  0.963740  0.807530  0.787250  1.0  0.6086
  C  C2378  1  0.936040  0.816570  0.793290  1.0  0.0876
  C  C2379  1  0.928450  0.810790  0.815330  1.0  -0.1333
  C  C2380  1  0.899050  0.814920  0.822510  1.0  -0.0593
  C  C2381  1  0.887610  0.805140  0.849960  1.0  0.0564
  C  C2382  1  0.867950  0.828210  0.850300  1.0  -0.0692
  C  C2383  1  0.867040  0.848570  0.831570  1.0  -0.1512
  C  C2384  1  0.890570  0.838540  0.814810  1.0  -0.1219
  C  C2385  1  0.898960  0.856040  0.789440  1.0  -0.0061
  C  C2386  1  0.877320  0.781890  0.841340  1.0  -0.4021
  C  C2387  1  0.908640  0.810620  0.872150  1.0  -0.3407
  C  C2388  1  0.926130  0.841210  0.779920  1.0  -0.0188
  C  C2389  1  0.963740  0.307530  0.287250  1.0  0.6086
  C  C2390  1  0.936040  0.316570  0.293290  1.0  0.0876
  C  C2391  1  0.928450  0.310790  0.315330  1.0  -0.1333
  C  C2392  1  0.899050  0.314920  0.322510  1.0  -0.0593
  C  C2393  1  0.887610  0.305140  0.349960  1.0  0.0564
  C  C2394  1  0.867950  0.328210  0.350300  1.0  -0.0692
  C  C2395  1  0.867040  0.348570  0.331570  1.0  -0.1512
  C  C2396  1  0.890570  0.338540  0.314810  1.0  -0.1219
  C  C2397  1  0.898960  0.356040  0.289440  1.0  -0.0061
  C  C2398  1  0.877320  0.281890  0.341340  1.0  -0.4021
  C  C2399  1  0.908640  0.310620  0.372150  1.0  -0.3407
  C  C2400  1  0.926130  0.341210  0.279920  1.0  -0.0188
  C  C2401  1  0.036260  0.787250  0.307530  1.0  0.6119
  C  C2402  1  0.063960  0.793290  0.316570  1.0  0.0915
  C  C2403  1  0.071550  0.815330  0.310790  1.0  -0.1346
  C  C2404  1  0.100950  0.822510  0.314920  1.0  -0.0602
  C  C2405  1  0.112390  0.849960  0.305140  1.0  0.0552
  C  C2406  1  0.132050  0.850300  0.328210  1.0  -0.0701
  C  C2407  1  0.132960  0.831570  0.348570  1.0  -0.1493
  C  C2408  1  0.109430  0.814810  0.338540  1.0  -0.1214
  C  C2409  1  0.101040  0.789440  0.356040  1.0  -0.0028
  C  C2410  1  0.122680  0.841340  0.281890  1.0  -0.4026
  C  C2411  1  0.091360  0.872150  0.310620  1.0  -0.3422
  C  C2412  1  0.073870  0.779920  0.341210  1.0  -0.0142
  C  C2413  1  0.036260  0.287250  0.807530  1.0  0.6119
  C  C2414  1  0.063960  0.293290  0.816570  1.0  0.0915
  C  C2415  1  0.071550  0.315330  0.810790  1.0  -0.1346
  C  C2416  1  0.100950  0.322510  0.814920  1.0  -0.0602
  C  C2417  1  0.112390  0.349960  0.805140  1.0  0.0552
  C  C2418  1  0.132050  0.350300  0.828210  1.0  -0.0701
  C  C2419  1  0.132960  0.331570  0.848570  1.0  -0.1493
  C  C2420  1  0.109430  0.314810  0.838540  1.0  -0.1214
  C  C2421  1  0.101040  0.289440  0.856040  1.0  -0.0028
  C  C2422  1  0.122680  0.341340  0.781890  1.0  -0.4026
  C  C2423  1  0.091360  0.372150  0.810620  1.0  -0.3422
  C  C2424  1  0.073870  0.279920  0.841210  1.0  -0.0142
  C  C2425  1  0.536260  0.787250  0.807530  1.0  0.6119
  C  C2426  1  0.563960  0.793290  0.816570  1.0  0.0915
  C  C2427  1  0.571550  0.815330  0.810790  1.0  -0.1346
  C  C2428  1  0.600950  0.822510  0.814920  1.0  -0.0602
  C  C2429  1  0.612390  0.849960  0.805140  1.0  0.0552
  C  C2430  1  0.632050  0.850300  0.828210  1.0  -0.0701
  C  C2431  1  0.632960  0.831570  0.848570  1.0  -0.1493
  C  C2432  1  0.609430  0.814810  0.838540  1.0  -0.1214
  C  C2433  1  0.601040  0.789440  0.856040  1.0  -0.0028
  C  C2434  1  0.622680  0.841340  0.781890  1.0  -0.4026
  C  C2435  1  0.591360  0.872150  0.810620  1.0  -0.3422
  C  C2436  1  0.573870  0.779920  0.841210  1.0  -0.0142
  C  C2437  1  0.536260  0.287250  0.307530  1.0  0.6119
  C  C2438  1  0.563960  0.293290  0.316570  1.0  0.0915
  C  C2439  1  0.571550  0.315330  0.310790  1.0  -0.1346
  C  C2440  1  0.600950  0.322510  0.314920  1.0  -0.0602
  C  C2441  1  0.612390  0.349960  0.305140  1.0  0.0552
  C  C2442  1  0.632050  0.350300  0.328210  1.0  -0.0701
  C  C2443  1  0.632960  0.331570  0.348570  1.0  -0.1493
  C  C2444  1  0.609430  0.314810  0.338540  1.0  -0.1214
  C  C2445  1  0.601040  0.289440  0.356040  1.0  -0.0028
  C  C2446  1  0.622680  0.341340  0.281890  1.0  -0.4026
  C  C2447  1  0.591360  0.372150  0.310620  1.0  -0.3422
  C  C2448  1  0.573870  0.279920  0.341210  1.0  -0.0142
  C  C2449  1  0.963740  0.212750  0.307530  1.0  0.6127
  C  C2450  1  0.936040  0.206710  0.316570  1.0  0.0864
  C  C2451  1  0.928450  0.184670  0.310790  1.0  -0.1336
  C  C2452  1  0.899050  0.177490  0.314920  1.0  -0.0608
  C  C2453  1  0.887610  0.150040  0.305140  1.0  0.0555
  C  C2454  1  0.867950  0.149700  0.328210  1.0  -0.069
  C  C2455  1  0.867040  0.168430  0.348570  1.0  -0.1504
  C  C2456  1  0.890570  0.185190  0.338540  1.0  -0.1222
  C  C2457  1  0.898960  0.210560  0.356040  1.0  -0.0071
  C  C2458  1  0.877320  0.158660  0.281890  1.0  -0.4013
  C  C2459  1  0.908640  0.127850  0.310620  1.0  -0.3403
  C  C2460  1  0.926130  0.220080  0.341210  1.0  -0.0172
  C  C2461  1  0.963740  0.712750  0.807530  1.0  0.6127
  C  C2462  1  0.936040  0.706710  0.816570  1.0  0.0864
  C  C2463  1  0.928450  0.684670  0.810790  1.0  -0.1336
  C  C2464  1  0.899050  0.677490  0.814920  1.0  -0.0608
  C  C2465  1  0.887610  0.650040  0.805140  1.0  0.0555
  C  C2466  1  0.867950  0.649700  0.828210  1.0  -0.069
  C  C2467  1  0.867040  0.668430  0.848570  1.0  -0.1504
  C  C2468  1  0.890570  0.685190  0.838540  1.0  -0.1222
  C  C2469  1  0.898960  0.710560  0.856040  1.0  -0.0071
  C  C2470  1  0.877320  0.658660  0.781890  1.0  -0.4013
  C  C2471  1  0.908640  0.627850  0.810620  1.0  -0.3403
  C  C2472  1  0.926130  0.720080  0.841210  1.0  -0.0172
  C  C2473  1  0.463740  0.212750  0.807530  1.0  0.6127
  C  C2474  1  0.436040  0.206710  0.816570  1.0  0.0864
  C  C2475  1  0.428450  0.184670  0.810790  1.0  -0.1336
  C  C2476  1  0.399050  0.177490  0.814920  1.0  -0.0608
  C  C2477  1  0.387610  0.150040  0.805140  1.0  0.0555
  C  C2478  1  0.367950  0.149700  0.828210  1.0  -0.069
  C  C2479  1  0.367040  0.168430  0.848570  1.0  -0.1504
  C  C2480  1  0.390570  0.185190  0.838540  1.0  -0.1222
  C  C2481  1  0.398960  0.210560  0.856040  1.0  -0.0071
  C  C2482  1  0.377320  0.158660  0.781890  1.0  -0.4013
  C  C2483  1  0.408640  0.127850  0.810620  1.0  -0.3403
  C  C2484  1  0.426130  0.220080  0.841210  1.0  -0.0172
  C  C2485  1  0.463740  0.712750  0.307530  1.0  0.6127
  C  C2486  1  0.436040  0.706710  0.316570  1.0  0.0864
  C  C2487  1  0.428450  0.684670  0.310790  1.0  -0.1336
  C  C2488  1  0.399050  0.677490  0.314920  1.0  -0.0608
  C  C2489  1  0.387610  0.650040  0.305140  1.0  0.0555
  C  C2490  1  0.367950  0.649700  0.328210  1.0  -0.069
  C  C2491  1  0.367040  0.668430  0.348570  1.0  -0.1504
  C  C2492  1  0.390570  0.685190  0.338540  1.0  -0.1222
  C  C2493  1  0.398960  0.710560  0.356040  1.0  -0.0071
  C  C2494  1  0.377320  0.658660  0.281890  1.0  -0.4013
  C  C2495  1  0.408640  0.627850  0.310620  1.0  -0.3403
  C  C2496  1  0.426130  0.720080  0.341210  1.0  -0.0172
  C  C2497  1  0.036260  0.212750  0.692470  1.0  0.6141
  C  C2498  1  0.063960  0.206710  0.683430  1.0  0.0867
  C  C2499  1  0.071550  0.184670  0.689210  1.0  -0.135
  C  C2500  1  0.100950  0.177490  0.685080  1.0  -0.0641
  C  C2501  1  0.112390  0.150040  0.694860  1.0  0.0558
  C  C2502  1  0.132050  0.149700  0.671790  1.0  -0.07
  C  C2503  1  0.132960  0.168430  0.651430  1.0  -0.1493
  C  C2504  1  0.109430  0.185190  0.661460  1.0  -0.1204
  C  C2505  1  0.101040  0.210560  0.643960  1.0  -0.0044
  C  C2506  1  0.122680  0.158660  0.718110  1.0  -0.4019
  C  C2507  1  0.091360  0.127850  0.689380  1.0  -0.3419
  C  C2508  1  0.073870  0.220080  0.658790  1.0  -0.0179
  C  C2509  1  0.036260  0.712750  0.192470  1.0  0.6141
  C  C2510  1  0.063960  0.706710  0.183430  1.0  0.0867
  C  C2511  1  0.071550  0.684670  0.189210  1.0  -0.135
  C  C2512  1  0.100950  0.677490  0.185080  1.0  -0.0641
  C  C2513  1  0.112390  0.650040  0.194860  1.0  0.0558
  C  C2514  1  0.132050  0.649700  0.171790  1.0  -0.07
  C  C2515  1  0.132960  0.668430  0.151430  1.0  -0.1493
  C  C2516  1  0.109430  0.685190  0.161460  1.0  -0.1204
  C  C2517  1  0.101040  0.710560  0.143960  1.0  -0.0044
  C  C2518  1  0.122680  0.658660  0.218110  1.0  -0.4019
  C  C2519  1  0.091360  0.627850  0.189380  1.0  -0.3419
  C  C2520  1  0.073870  0.720080  0.158790  1.0  -0.0179
  C  C2521  1  0.536260  0.212750  0.192470  1.0  0.6141
  C  C2522  1  0.563960  0.206710  0.183430  1.0  0.0867
  C  C2523  1  0.571550  0.184670  0.189210  1.0  -0.135
  C  C2524  1  0.600950  0.177490  0.185080  1.0  -0.0641
  C  C2525  1  0.612390  0.150040  0.194860  1.0  0.0558
  C  C2526  1  0.632050  0.149700  0.171790  1.0  -0.07
  C  C2527  1  0.632960  0.168430  0.151430  1.0  -0.1493
  C  C2528  1  0.609430  0.185190  0.161460  1.0  -0.1204
  C  C2529  1  0.601040  0.210560  0.143960  1.0  -0.0044
  C  C2530  1  0.622680  0.158660  0.218110  1.0  -0.4019
  C  C2531  1  0.591360  0.127850  0.189380  1.0  -0.3419
  C  C2532  1  0.573870  0.220080  0.158790  1.0  -0.0179
  C  C2533  1  0.536260  0.712750  0.692470  1.0  0.6141
  C  C2534  1  0.563960  0.706710  0.683430  1.0  0.0867
  C  C2535  1  0.571550  0.684670  0.689210  1.0  -0.135
  C  C2536  1  0.600950  0.677490  0.685080  1.0  -0.0641
  C  C2537  1  0.612390  0.650040  0.694860  1.0  0.0558
  C  C2538  1  0.632050  0.649700  0.671790  1.0  -0.07
  C  C2539  1  0.632960  0.668430  0.651430  1.0  -0.1493
  C  C2540  1  0.609430  0.685190  0.661460  1.0  -0.1204
  C  C2541  1  0.601040  0.710560  0.643960  1.0  -0.0044
  C  C2542  1  0.622680  0.658660  0.718110  1.0  -0.4019
  C  C2543  1  0.591360  0.627850  0.689380  1.0  -0.3419
  C  C2544  1  0.573870  0.720080  0.658790  1.0  -0.0179
  C  C2545  1  0.963740  0.787250  0.692470  1.0  0.6139
  C  C2546  1  0.936040  0.793290  0.683430  1.0  0.0909
  C  C2547  1  0.928450  0.815330  0.689210  1.0  -0.1333
  C  C2548  1  0.899050  0.822510  0.685080  1.0  -0.0637
  C  C2549  1  0.887610  0.849960  0.694860  1.0  0.056
  C  C2550  1  0.867950  0.850300  0.671790  1.0  -0.069
  C  C2551  1  0.867040  0.831570  0.651430  1.0  -0.1498
  C  C2552  1  0.890570  0.814810  0.661460  1.0  -0.1215
  C  C2553  1  0.898960  0.789440  0.643960  1.0  -0.0045
  C  C2554  1  0.877320  0.841340  0.718110  1.0  -0.4021
  C  C2555  1  0.908640  0.872150  0.689380  1.0  -0.342
  C  C2556  1  0.926130  0.779920  0.658790  1.0  -0.0163
  C  C2557  1  0.963740  0.287250  0.192470  1.0  0.6139
  C  C2558  1  0.936040  0.293290  0.183430  1.0  0.0909
  C  C2559  1  0.928450  0.315330  0.189210  1.0  -0.1333
  C  C2560  1  0.899050  0.322510  0.185080  1.0  -0.0637
  C  C2561  1  0.887610  0.349960  0.194860  1.0  0.056
  C  C2562  1  0.867950  0.350300  0.171790  1.0  -0.069
  C  C2563  1  0.867040  0.331570  0.151430  1.0  -0.1498
  C  C2564  1  0.890570  0.314810  0.161460  1.0  -0.1215
  C  C2565  1  0.898960  0.289440  0.143960  1.0  -0.0045
  C  C2566  1  0.877320  0.341340  0.218110  1.0  -0.4021
  C  C2567  1  0.908640  0.372150  0.189380  1.0  -0.342
  C  C2568  1  0.926130  0.279920  0.158790  1.0  -0.0163
  C  C2569  1  0.463740  0.787250  0.192470  1.0  0.6139
  C  C2570  1  0.436040  0.793290  0.183430  1.0  0.0909
  C  C2571  1  0.428450  0.815330  0.189210  1.0  -0.1333
  C  C2572  1  0.399050  0.822510  0.185080  1.0  -0.0637
  C  C2573  1  0.387610  0.849960  0.194860  1.0  0.056
  C  C2574  1  0.367950  0.850300  0.171790  1.0  -0.069
  C  C2575  1  0.367040  0.831570  0.151430  1.0  -0.1498
  C  C2576  1  0.390570  0.814810  0.161460  1.0  -0.1215
  C  C2577  1  0.398960  0.789440  0.143960  1.0  -0.0045
  C  C2578  1  0.377320  0.841340  0.218110  1.0  -0.4021
  C  C2579  1  0.408640  0.872150  0.189380  1.0  -0.342
  C  C2580  1  0.426130  0.779920  0.158790  1.0  -0.0163
  C  C2581  1  0.463740  0.287250  0.692470  1.0  0.6139
  C  C2582  1  0.436040  0.293290  0.683430  1.0  0.0909
  C  C2583  1  0.428450  0.315330  0.689210  1.0  -0.1333
  C  C2584  1  0.399050  0.322510  0.685080  1.0  -0.0637
  C  C2585  1  0.387610  0.349960  0.694860  1.0  0.056
  C  C2586  1  0.367950  0.350300  0.671790  1.0  -0.069
  C  C2587  1  0.367040  0.331570  0.651430  1.0  -0.1498
  C  C2588  1  0.390570  0.314810  0.661460  1.0  -0.1215
  C  C2589  1  0.398960  0.289440  0.643960  1.0  -0.0045
  C  C2590  1  0.377320  0.341340  0.718110  1.0  -0.4021
  C  C2591  1  0.408640  0.372150  0.689380  1.0  -0.342
  C  C2592  1  0.426130  0.279920  0.658790  1.0  -0.0163
  C  C2593  1  0.787250  0.692470  0.963740  1.0  0.6163
  C  C2594  1  0.793290  0.683430  0.936040  1.0  0.0849
  C  C2595  1  0.815330  0.689210  0.928450  1.0  -0.1338
  C  C2596  1  0.822510  0.685080  0.899050  1.0  -0.0607
  C  C2597  1  0.849960  0.694860  0.887610  1.0  0.056
  C  C2598  1  0.850300  0.671790  0.867950  1.0  -0.0696
  C  C2599  1  0.831570  0.651430  0.867040  1.0  -0.1498
  C  C2600  1  0.814810  0.661460  0.890570  1.0  -0.1206
  C  C2601  1  0.789440  0.643960  0.898960  1.0  -0.0017
  C  C2602  1  0.841340  0.718110  0.877320  1.0  -0.4061
  C  C2603  1  0.872150  0.689380  0.908640  1.0  -0.3394
  C  C2604  1  0.779920  0.658790  0.926130  1.0  -0.0197
  C  C2605  1  0.787250  0.192470  0.463740  1.0  0.6163
  C  C2606  1  0.793290  0.183430  0.436040  1.0  0.0849
  C  C2607  1  0.815330  0.189210  0.428450  1.0  -0.1338
  C  C2608  1  0.822510  0.185080  0.399050  1.0  -0.0607
  C  C2609  1  0.849960  0.194860  0.387610  1.0  0.056
  C  C2610  1  0.850300  0.171790  0.367950  1.0  -0.0696
  C  C2611  1  0.831570  0.151430  0.367040  1.0  -0.1498
  C  C2612  1  0.814810  0.161460  0.390570  1.0  -0.1206
  C  C2613  1  0.789440  0.143960  0.398960  1.0  -0.0017
  C  C2614  1  0.841340  0.218110  0.377320  1.0  -0.4061
  C  C2615  1  0.872150  0.189380  0.408640  1.0  -0.3394
  C  C2616  1  0.779920  0.158790  0.426130  1.0  -0.0197
  C  C2617  1  0.287250  0.692470  0.463740  1.0  0.6163
  C  C2618  1  0.293290  0.683430  0.436040  1.0  0.0849
  C  C2619  1  0.315330  0.689210  0.428450  1.0  -0.1338
  C  C2620  1  0.322510  0.685080  0.399050  1.0  -0.0607
  C  C2621  1  0.349960  0.694860  0.387610  1.0  0.056
  C  C2622  1  0.350300  0.671790  0.367950  1.0  -0.0696
  C  C2623  1  0.331570  0.651430  0.367040  1.0  -0.1498
  C  C2624  1  0.314810  0.661460  0.390570  1.0  -0.1206
  C  C2625  1  0.289440  0.643960  0.398960  1.0  -0.0017
  C  C2626  1  0.341340  0.718110  0.377320  1.0  -0.4061
  C  C2627  1  0.372150  0.689380  0.408640  1.0  -0.3394
  C  C2628  1  0.279920  0.658790  0.426130  1.0  -0.0197
  C  C2629  1  0.287250  0.192470  0.963740  1.0  0.6163
  C  C2630  1  0.293290  0.183430  0.936040  1.0  0.0849
  C  C2631  1  0.315330  0.189210  0.928450  1.0  -0.1338
  C  C2632  1  0.322510  0.185080  0.899050  1.0  -0.0607
  C  C2633  1  0.349960  0.194860  0.887610  1.0  0.056
  C  C2634  1  0.350300  0.171790  0.867950  1.0  -0.0696
  C  C2635  1  0.331570  0.151430  0.867040  1.0  -0.1498
  C  C2636  1  0.314810  0.161460  0.890570  1.0  -0.1206
  C  C2637  1  0.289440  0.143960  0.898960  1.0  -0.0017
  C  C2638  1  0.341340  0.218110  0.877320  1.0  -0.4061
  C  C2639  1  0.372150  0.189380  0.908640  1.0  -0.3394
  C  C2640  1  0.279920  0.158790  0.926130  1.0  -0.0197
  C  C2641  1  0.212750  0.692470  0.036260  1.0  0.6148
  C  C2642  1  0.206710  0.683430  0.063960  1.0  0.0876
  C  C2643  1  0.184670  0.689210  0.071550  1.0  -0.1347
  C  C2644  1  0.177490  0.685080  0.100950  1.0  -0.0589
  C  C2645  1  0.150040  0.694860  0.112390  1.0  0.0565
  C  C2646  1  0.149700  0.671790  0.132050  1.0  -0.069
  C  C2647  1  0.168430  0.651430  0.132960  1.0  -0.1501
  C  C2648  1  0.185190  0.661460  0.109430  1.0  -0.1217
  C  C2649  1  0.210560  0.643960  0.101040  1.0  -0.0008
  C  C2650  1  0.158660  0.718110  0.122680  1.0  -0.4045
  C  C2651  1  0.127850  0.689380  0.091360  1.0  -0.3402
  C  C2652  1  0.220080  0.658790  0.073870  1.0  -0.0218
  C  C2653  1  0.212750  0.192470  0.536260  1.0  0.6148
  C  C2654  1  0.206710  0.183430  0.563960  1.0  0.0876
  C  C2655  1  0.184670  0.189210  0.571550  1.0  -0.1347
  C  C2656  1  0.177490  0.185080  0.600950  1.0  -0.0589
  C  C2657  1  0.150040  0.194860  0.612390  1.0  0.0565
  C  C2658  1  0.149700  0.171790  0.632050  1.0  -0.069
  C  C2659  1  0.168430  0.151430  0.632960  1.0  -0.1501
  C  C2660  1  0.185190  0.161460  0.609430  1.0  -0.1217
  C  C2661  1  0.210560  0.143960  0.601040  1.0  -0.0008
  C  C2662  1  0.158660  0.218110  0.622680  1.0  -0.4045
  C  C2663  1  0.127850  0.189380  0.591360  1.0  -0.3402
  C  C2664  1  0.220080  0.158790  0.573870  1.0  -0.0218
  C  C2665  1  0.712750  0.692470  0.536260  1.0  0.6148
  C  C2666  1  0.706710  0.683430  0.563960  1.0  0.0876
  C  C2667  1  0.684670  0.689210  0.571550  1.0  -0.1347
  C  C2668  1  0.677490  0.685080  0.600950  1.0  -0.0589
  C  C2669  1  0.650040  0.694860  0.612390  1.0  0.0565
  C  C2670  1  0.649700  0.671790  0.632050  1.0  -0.069
  C  C2671  1  0.668430  0.651430  0.632960  1.0  -0.1501
  C  C2672  1  0.685190  0.661460  0.609430  1.0  -0.1217
  C  C2673  1  0.710560  0.643960  0.601040  1.0  -0.0008
  C  C2674  1  0.658660  0.718110  0.622680  1.0  -0.4045
  C  C2675  1  0.627850  0.689380  0.591360  1.0  -0.3402
  C  C2676  1  0.720080  0.658790  0.573870  1.0  -0.0218
  C  C2677  1  0.712750  0.192470  0.036260  1.0  0.6148
  C  C2678  1  0.706710  0.183430  0.063960  1.0  0.0876
  C  C2679  1  0.684670  0.189210  0.071550  1.0  -0.1347
  C  C2680  1  0.677490  0.185080  0.100950  1.0  -0.0589
  C  C2681  1  0.650040  0.194860  0.112390  1.0  0.0565
  C  C2682  1  0.649700  0.171790  0.132050  1.0  -0.069
  C  C2683  1  0.668430  0.151430  0.132960  1.0  -0.1501
  C  C2684  1  0.685190  0.161460  0.109430  1.0  -0.1217
  C  C2685  1  0.710560  0.143960  0.101040  1.0  -0.0008
  C  C2686  1  0.658660  0.218110  0.122680  1.0  -0.4045
  C  C2687  1  0.627850  0.189380  0.091360  1.0  -0.3402
  C  C2688  1  0.720080  0.158790  0.073870  1.0  -0.0218
  C  C2689  1  0.212750  0.307530  0.963740  1.0  0.6107
  C  C2690  1  0.206710  0.316570  0.936040  1.0  0.0863
  C  C2691  1  0.184670  0.310790  0.928450  1.0  -0.1351
  C  C2692  1  0.177490  0.314920  0.899050  1.0  -0.0589
  C  C2693  1  0.150040  0.305140  0.887610  1.0  0.0558
  C  C2694  1  0.149700  0.328210  0.867950  1.0  -0.0694
  C  C2695  1  0.168430  0.348570  0.867040  1.0  -0.1495
  C  C2696  1  0.185190  0.338540  0.890570  1.0  -0.121
  C  C2697  1  0.210560  0.356040  0.898960  1.0  -0.0042
  C  C2698  1  0.158660  0.281890  0.877320  1.0  -0.4053
  C  C2699  1  0.127850  0.310620  0.908640  1.0  -0.3421
  C  C2700  1  0.220080  0.341210  0.926130  1.0  -0.0212
  C  C2701  1  0.212750  0.807530  0.463740  1.0  0.6107
  C  C2702  1  0.206710  0.816570  0.436040  1.0  0.0863
  C  C2703  1  0.184670  0.810790  0.428450  1.0  -0.1351
  C  C2704  1  0.177490  0.814920  0.399050  1.0  -0.0589
  C  C2705  1  0.150040  0.805140  0.387610  1.0  0.0558
  C  C2706  1  0.149700  0.828210  0.367950  1.0  -0.0694
  C  C2707  1  0.168430  0.848570  0.367040  1.0  -0.1495
  C  C2708  1  0.185190  0.838540  0.390570  1.0  -0.121
  C  C2709  1  0.210560  0.856040  0.398960  1.0  -0.0042
  C  C2710  1  0.158660  0.781890  0.377320  1.0  -0.4053
  C  C2711  1  0.127850  0.810620  0.408640  1.0  -0.3421
  C  C2712  1  0.220080  0.841210  0.426130  1.0  -0.0212
  C  C2713  1  0.712750  0.307530  0.463740  1.0  0.6107
  C  C2714  1  0.706710  0.316570  0.436040  1.0  0.0863
  C  C2715  1  0.684670  0.310790  0.428450  1.0  -0.1351
  C  C2716  1  0.677490  0.314920  0.399050  1.0  -0.0589
  C  C2717  1  0.650040  0.305140  0.387610  1.0  0.0558
  C  C2718  1  0.649700  0.328210  0.367950  1.0  -0.0694
  C  C2719  1  0.668430  0.348570  0.367040  1.0  -0.1495
  C  C2720  1  0.685190  0.338540  0.390570  1.0  -0.121
  C  C2721  1  0.710560  0.356040  0.398960  1.0  -0.0042
  C  C2722  1  0.658660  0.281890  0.377320  1.0  -0.4053
  C  C2723  1  0.627850  0.310620  0.408640  1.0  -0.3421
  C  C2724  1  0.720080  0.341210  0.426130  1.0  -0.0212
  C  C2725  1  0.712750  0.807530  0.963740  1.0  0.6107
  C  C2726  1  0.706710  0.816570  0.936040  1.0  0.0863
  C  C2727  1  0.684670  0.810790  0.928450  1.0  -0.1351
  C  C2728  1  0.677490  0.814920  0.899050  1.0  -0.0589
  C  C2729  1  0.650040  0.805140  0.887610  1.0  0.0558
  C  C2730  1  0.649700  0.828210  0.867950  1.0  -0.0694
  C  C2731  1  0.668430  0.848570  0.867040  1.0  -0.1495
  C  C2732  1  0.685190  0.838540  0.890570  1.0  -0.121
  C  C2733  1  0.710560  0.856040  0.898960  1.0  -0.0042
  C  C2734  1  0.658660  0.781890  0.877320  1.0  -0.4053
  C  C2735  1  0.627850  0.810620  0.908640  1.0  -0.3421
  C  C2736  1  0.720080  0.841210  0.926130  1.0  -0.0212
  C  C2737  1  0.787250  0.307530  0.036260  1.0  0.6095
  C  C2738  1  0.793290  0.316570  0.063960  1.0  0.0855
  C  C2739  1  0.815330  0.310790  0.071550  1.0  -0.1332
  C  C2740  1  0.822510  0.314920  0.100950  1.0  -0.0608
  C  C2741  1  0.849960  0.305140  0.112390  1.0  0.0566
  C  C2742  1  0.850300  0.328210  0.132050  1.0  -0.0686
  C  C2743  1  0.831570  0.348570  0.132960  1.0  -0.1492
  C  C2744  1  0.814810  0.338540  0.109430  1.0  -0.1196
  C  C2745  1  0.789440  0.356040  0.101040  1.0  -0.0046
  C  C2746  1  0.841340  0.281890  0.122680  1.0  -0.4059
  C  C2747  1  0.872150  0.310620  0.091360  1.0  -0.3393
  C  C2748  1  0.779920  0.341210  0.073870  1.0  -0.0214
  C  C2749  1  0.787250  0.807530  0.536260  1.0  0.6095
  C  C2750  1  0.793290  0.816570  0.563960  1.0  0.0855
  C  C2751  1  0.815330  0.810790  0.571550  1.0  -0.1332
  C  C2752  1  0.822510  0.814920  0.600950  1.0  -0.0608
  C  C2753  1  0.849960  0.805140  0.612390  1.0  0.0566
  C  C2754  1  0.850300  0.828210  0.632050  1.0  -0.0686
  C  C2755  1  0.831570  0.848570  0.632960  1.0  -0.1492
  C  C2756  1  0.814810  0.838540  0.609430  1.0  -0.1196
  C  C2757  1  0.789440  0.856040  0.601040  1.0  -0.0046
  C  C2758  1  0.841340  0.781890  0.622680  1.0  -0.4059
  C  C2759  1  0.872150  0.810620  0.591360  1.0  -0.3393
  C  C2760  1  0.779920  0.841210  0.573870  1.0  -0.0214
  C  C2761  1  0.287250  0.307530  0.536260  1.0  0.6095
  C  C2762  1  0.293290  0.316570  0.563960  1.0  0.0855
  C  C2763  1  0.315330  0.310790  0.571550  1.0  -0.1332
  C  C2764  1  0.322510  0.314920  0.600950  1.0  -0.0608
  C  C2765  1  0.349960  0.305140  0.612390  1.0  0.0566
  C  C2766  1  0.350300  0.328210  0.632050  1.0  -0.0686
  C  C2767  1  0.331570  0.348570  0.632960  1.0  -0.1492
  C  C2768  1  0.314810  0.338540  0.609430  1.0  -0.1196
  C  C2769  1  0.289440  0.356040  0.601040  1.0  -0.0046
  C  C2770  1  0.341340  0.281890  0.622680  1.0  -0.4059
  C  C2771  1  0.372150  0.310620  0.591360  1.0  -0.3393
  C  C2772  1  0.279920  0.341210  0.573870  1.0  -0.0214
  C  C2773  1  0.287250  0.807530  0.036260  1.0  0.6095
  C  C2774  1  0.293290  0.816570  0.063960  1.0  0.0855
  C  C2775  1  0.315330  0.810790  0.071550  1.0  -0.1332
  C  C2776  1  0.322510  0.814920  0.100950  1.0  -0.0608
  C  C2777  1  0.349960  0.805140  0.112390  1.0  0.0566
  C  C2778  1  0.350300  0.828210  0.132050  1.0  -0.0686
  C  C2779  1  0.331570  0.848570  0.132960  1.0  -0.1492
  C  C2780  1  0.314810  0.838540  0.109430  1.0  -0.1196
  C  C2781  1  0.289440  0.856040  0.101040  1.0  -0.0046
  C  C2782  1  0.341340  0.781890  0.122680  1.0  -0.4059
  C  C2783  1  0.372150  0.810620  0.091360  1.0  -0.3393
  C  C2784  1  0.279920  0.841210  0.073870  1.0  -0.0214
  C  C2785  1  0.692470  0.036260  0.212750  1.0  0.6158
  C  C2786  1  0.683430  0.063960  0.206710  1.0  0.0882
  C  C2787  1  0.689210  0.071550  0.184670  1.0  -0.1358
  C  C2788  1  0.685080  0.100950  0.177490  1.0  -0.0605
  C  C2789  1  0.694860  0.112390  0.150040  1.0  0.0566
  C  C2790  1  0.671790  0.132050  0.149700  1.0  -0.0696
  C  C2791  1  0.651430  0.132960  0.168430  1.0  -0.1494
  C  C2792  1  0.661460  0.109430  0.185190  1.0  -0.1242
  C  C2793  1  0.643960  0.101040  0.210560  1.0  -0.0064
  C  C2794  1  0.718110  0.122680  0.158660  1.0  -0.4033
  C  C2795  1  0.689380  0.091360  0.127850  1.0  -0.3355
  C  C2796  1  0.658790  0.073870  0.220080  1.0  -0.0215
  C  C2797  1  0.692470  0.536260  0.712750  1.0  0.6158
  C  C2798  1  0.683430  0.563960  0.706710  1.0  0.0882
  C  C2799  1  0.689210  0.571550  0.684670  1.0  -0.1358
  C  C2800  1  0.685080  0.600950  0.677490  1.0  -0.0605
  C  C2801  1  0.694860  0.612390  0.650040  1.0  0.0566
  C  C2802  1  0.671790  0.632050  0.649700  1.0  -0.0696
  C  C2803  1  0.651430  0.632960  0.668430  1.0  -0.1494
  C  C2804  1  0.661460  0.609430  0.685190  1.0  -0.1242
  C  C2805  1  0.643960  0.601040  0.710560  1.0  -0.0064
  C  C2806  1  0.718110  0.622680  0.658660  1.0  -0.4033
  C  C2807  1  0.689380  0.591360  0.627850  1.0  -0.3355
  C  C2808  1  0.658790  0.573870  0.720080  1.0  -0.0215
  C  C2809  1  0.192470  0.036260  0.712750  1.0  0.6158
  C  C2810  1  0.183430  0.063960  0.706710  1.0  0.0882
  C  C2811  1  0.189210  0.071550  0.684670  1.0  -0.1358
  C  C2812  1  0.185080  0.100950  0.677490  1.0  -0.0605
  C  C2813  1  0.194860  0.112390  0.650040  1.0  0.0566
  C  C2814  1  0.171790  0.132050  0.649700  1.0  -0.0696
  C  C2815  1  0.151430  0.132960  0.668430  1.0  -0.1494
  C  C2816  1  0.161460  0.109430  0.685190  1.0  -0.1242
  C  C2817  1  0.143960  0.101040  0.710560  1.0  -0.0064
  C  C2818  1  0.218110  0.122680  0.658660  1.0  -0.4033
  C  C2819  1  0.189380  0.091360  0.627850  1.0  -0.3355
  C  C2820  1  0.158790  0.073870  0.720080  1.0  -0.0215
  C  C2821  1  0.192470  0.536260  0.212750  1.0  0.6158
  C  C2822  1  0.183430  0.563960  0.206710  1.0  0.0882
  C  C2823  1  0.189210  0.571550  0.184670  1.0  -0.1358
  C  C2824  1  0.185080  0.600950  0.177490  1.0  -0.0605
  C  C2825  1  0.194860  0.612390  0.150040  1.0  0.0566
  C  C2826  1  0.171790  0.632050  0.149700  1.0  -0.0696
  C  C2827  1  0.151430  0.632960  0.168430  1.0  -0.1494
  C  C2828  1  0.161460  0.609430  0.185190  1.0  -0.1242
  C  C2829  1  0.143960  0.601040  0.210560  1.0  -0.0064
  C  C2830  1  0.218110  0.622680  0.158660  1.0  -0.4033
  C  C2831  1  0.189380  0.591360  0.127850  1.0  -0.3355
  C  C2832  1  0.158790  0.573870  0.220080  1.0  -0.0215
  C  C2833  1  0.692470  0.963740  0.787250  1.0  0.614
  C  C2834  1  0.683430  0.936040  0.793290  1.0  0.0883
  C  C2835  1  0.689210  0.928450  0.815330  1.0  -0.136
  C  C2836  1  0.685080  0.899050  0.822510  1.0  -0.0586
  C  C2837  1  0.694860  0.887610  0.849960  1.0  0.056
  C  C2838  1  0.671790  0.867950  0.850300  1.0  -0.071
  C  C2839  1  0.651430  0.867040  0.831570  1.0  -0.1492
  C  C2840  1  0.661460  0.890570  0.814810  1.0  -0.1244
  C  C2841  1  0.643960  0.898960  0.789440  1.0  -0.0045
  C  C2842  1  0.718110  0.877320  0.841340  1.0  -0.4025
  C  C2843  1  0.689380  0.908640  0.872150  1.0  -0.3407
  C  C2844  1  0.658790  0.926130  0.779920  1.0  -0.0225
  C  C2845  1  0.692470  0.463740  0.287250  1.0  0.614
  C  C2846  1  0.683430  0.436040  0.293290  1.0  0.0883
  C  C2847  1  0.689210  0.428450  0.315330  1.0  -0.136
  C  C2848  1  0.685080  0.399050  0.322510  1.0  -0.0586
  C  C2849  1  0.694860  0.387610  0.349960  1.0  0.056
  C  C2850  1  0.671790  0.367950  0.350300  1.0  -0.071
  C  C2851  1  0.651430  0.367040  0.331570  1.0  -0.1492
  C  C2852  1  0.661460  0.390570  0.314810  1.0  -0.1244
  C  C2853  1  0.643960  0.398960  0.289440  1.0  -0.0045
  C  C2854  1  0.718110  0.377320  0.341340  1.0  -0.4025
  C  C2855  1  0.689380  0.408640  0.372150  1.0  -0.3407
  C  C2856  1  0.658790  0.426130  0.279920  1.0  -0.0225
  C  C2857  1  0.192470  0.963740  0.287250  1.0  0.614
  C  C2858  1  0.183430  0.936040  0.293290  1.0  0.0883
  C  C2859  1  0.189210  0.928450  0.315330  1.0  -0.136
  C  C2860  1  0.185080  0.899050  0.322510  1.0  -0.0586
  C  C2861  1  0.194860  0.887610  0.349960  1.0  0.056
  C  C2862  1  0.171790  0.867950  0.350300  1.0  -0.071
  C  C2863  1  0.151430  0.867040  0.331570  1.0  -0.1492
  C  C2864  1  0.161460  0.890570  0.314810  1.0  -0.1244
  C  C2865  1  0.143960  0.898960  0.289440  1.0  -0.0045
  C  C2866  1  0.218110  0.877320  0.341340  1.0  -0.4025
  C  C2867  1  0.189380  0.908640  0.372150  1.0  -0.3407
  C  C2868  1  0.158790  0.926130  0.279920  1.0  -0.0225
  C  C2869  1  0.192470  0.463740  0.787250  1.0  0.614
  C  C2870  1  0.183430  0.436040  0.793290  1.0  0.0883
  C  C2871  1  0.189210  0.428450  0.815330  1.0  -0.136
  C  C2872  1  0.185080  0.399050  0.822510  1.0  -0.0586
  C  C2873  1  0.194860  0.387610  0.849960  1.0  0.056
  C  C2874  1  0.171790  0.367950  0.850300  1.0  -0.071
  C  C2875  1  0.151430  0.367040  0.831570  1.0  -0.1492
  C  C2876  1  0.161460  0.390570  0.814810  1.0  -0.1244
  C  C2877  1  0.143960  0.398960  0.789440  1.0  -0.0045
  C  C2878  1  0.218110  0.377320  0.841340  1.0  -0.4025
  C  C2879  1  0.189380  0.408640  0.872150  1.0  -0.3407
  C  C2880  1  0.158790  0.426130  0.779920  1.0  -0.0225
  C  C2881  1  0.307530  0.036260  0.787250  1.0  0.6166
  C  C2882  1  0.316570  0.063960  0.793290  1.0  0.0878
  C  C2883  1  0.310790  0.071550  0.815330  1.0  -0.1365
  C  C2884  1  0.314920  0.100950  0.822510  1.0  -0.0612
  C  C2885  1  0.305140  0.112390  0.849960  1.0  0.0572
  C  C2886  1  0.328210  0.132050  0.850300  1.0  -0.0698
  C  C2887  1  0.348570  0.132960  0.831570  1.0  -0.1496
  C  C2888  1  0.338540  0.109430  0.814810  1.0  -0.1245
  C  C2889  1  0.356040  0.101040  0.789440  1.0  -0.0061
  C  C2890  1  0.281890  0.122680  0.841340  1.0  -0.4041
  C  C2891  1  0.310620  0.091360  0.872150  1.0  -0.3405
  C  C2892  1  0.341210  0.073870  0.779920  1.0  -0.0221
  C  C2893  1  0.307530  0.536260  0.287250  1.0  0.6166
  C  C2894  1  0.316570  0.563960  0.293290  1.0  0.0878
  C  C2895  1  0.310790  0.571550  0.315330  1.0  -0.1365
  C  C2896  1  0.314920  0.600950  0.322510  1.0  -0.0612
  C  C2897  1  0.305140  0.612390  0.349960  1.0  0.0572
  C  C2898  1  0.328210  0.632050  0.350300  1.0  -0.0698
  C  C2899  1  0.348570  0.632960  0.331570  1.0  -0.1496
  C  C2900  1  0.338540  0.609430  0.314810  1.0  -0.1245
  C  C2901  1  0.356040  0.601040  0.289440  1.0  -0.0061
  C  C2902  1  0.281890  0.622680  0.341340  1.0  -0.4041
  C  C2903  1  0.310620  0.591360  0.372150  1.0  -0.3405
  C  C2904  1  0.341210  0.573870  0.279920  1.0  -0.0221
  C  C2905  1  0.807530  0.036260  0.287250  1.0  0.6166
  C  C2906  1  0.816570  0.063960  0.293290  1.0  0.0878
  C  C2907  1  0.810790  0.071550  0.315330  1.0  -0.1365
  C  C2908  1  0.814920  0.100950  0.322510  1.0  -0.0612
  C  C2909  1  0.805140  0.112390  0.349960  1.0  0.0572
  C  C2910  1  0.828210  0.132050  0.350300  1.0  -0.0698
  C  C2911  1  0.848570  0.132960  0.331570  1.0  -0.1496
  C  C2912  1  0.838540  0.109430  0.314810  1.0  -0.1245
  C  C2913  1  0.856040  0.101040  0.289440  1.0  -0.0061
  C  C2914  1  0.781890  0.122680  0.341340  1.0  -0.4041
  C  C2915  1  0.810620  0.091360  0.372150  1.0  -0.3405
  C  C2916  1  0.841210  0.073870  0.279920  1.0  -0.0221
  C  C2917  1  0.807530  0.536260  0.787250  1.0  0.6166
  C  C2918  1  0.816570  0.563960  0.793290  1.0  0.0878
  C  C2919  1  0.810790  0.571550  0.815330  1.0  -0.1365
  C  C2920  1  0.814920  0.600950  0.822510  1.0  -0.0612
  C  C2921  1  0.805140  0.612390  0.849960  1.0  0.0572
  C  C2922  1  0.828210  0.632050  0.850300  1.0  -0.0698
  C  C2923  1  0.848570  0.632960  0.831570  1.0  -0.1496
  C  C2924  1  0.838540  0.609430  0.814810  1.0  -0.1245
  C  C2925  1  0.856040  0.601040  0.789440  1.0  -0.0061
  C  C2926  1  0.781890  0.622680  0.841340  1.0  -0.4041
  C  C2927  1  0.810620  0.591360  0.872150  1.0  -0.3405
  C  C2928  1  0.841210  0.573870  0.779920  1.0  -0.0221
  C  C2929  1  0.307530  0.963740  0.212750  1.0  0.6138
  C  C2930  1  0.316570  0.936040  0.206710  1.0  0.088
  C  C2931  1  0.310790  0.928450  0.184670  1.0  -0.1367
  C  C2932  1  0.314920  0.899050  0.177490  1.0  -0.0624
  C  C2933  1  0.305140  0.887610  0.150040  1.0  0.0571
  C  C2934  1  0.328210  0.867950  0.149700  1.0  -0.0704
  C  C2935  1  0.348570  0.867040  0.168430  1.0  -0.1489
  C  C2936  1  0.338540  0.890570  0.185190  1.0  -0.1252
  C  C2937  1  0.356040  0.898960  0.210560  1.0  -0.0036
  C  C2938  1  0.281890  0.877320  0.158660  1.0  -0.4051
  C  C2939  1  0.310620  0.908640  0.127850  1.0  -0.3401
  C  C2940  1  0.341210  0.926130  0.220080  1.0  -0.0218
  C  C2941  1  0.307530  0.463740  0.712750  1.0  0.6138
  C  C2942  1  0.316570  0.436040  0.706710  1.0  0.088
  C  C2943  1  0.310790  0.428450  0.684670  1.0  -0.1367
  C  C2944  1  0.314920  0.399050  0.677490  1.0  -0.0624
  C  C2945  1  0.305140  0.387610  0.650040  1.0  0.0571
  C  C2946  1  0.328210  0.367950  0.649700  1.0  -0.0704
  C  C2947  1  0.348570  0.367040  0.668430  1.0  -0.1489
  C  C2948  1  0.338540  0.390570  0.685190  1.0  -0.1252
  C  C2949  1  0.356040  0.398960  0.710560  1.0  -0.0036
  C  C2950  1  0.281890  0.377320  0.658660  1.0  -0.4051
  C  C2951  1  0.310620  0.408640  0.627850  1.0  -0.3401
  C  C2952  1  0.341210  0.426130  0.720080  1.0  -0.0218
  C  C2953  1  0.807530  0.963740  0.712750  1.0  0.6138
  C  C2954  1  0.816570  0.936040  0.706710  1.0  0.088
  C  C2955  1  0.810790  0.928450  0.684670  1.0  -0.1367
  C  C2956  1  0.814920  0.899050  0.677490  1.0  -0.0624
  C  C2957  1  0.805140  0.887610  0.650040  1.0  0.0571
  C  C2958  1  0.828210  0.867950  0.649700  1.0  -0.0704
  C  C2959  1  0.848570  0.867040  0.668430  1.0  -0.1489
  C  C2960  1  0.838540  0.890570  0.685190  1.0  -0.1252
  C  C2961  1  0.856040  0.898960  0.710560  1.0  -0.0036
  C  C2962  1  0.781890  0.877320  0.658660  1.0  -0.4051
  C  C2963  1  0.810620  0.908640  0.627850  1.0  -0.3401
  C  C2964  1  0.841210  0.926130  0.720080  1.0  -0.0218
  C  C2965  1  0.807530  0.463740  0.212750  1.0  0.6138
  C  C2966  1  0.816570  0.436040  0.206710  1.0  0.088
  C  C2967  1  0.810790  0.428450  0.184670  1.0  -0.1367
  C  C2968  1  0.814920  0.399050  0.177490  1.0  -0.0624
  C  C2969  1  0.805140  0.387610  0.150040  1.0  0.0571
  C  C2970  1  0.828210  0.367950  0.149700  1.0  -0.0704
  C  C2971  1  0.848570  0.367040  0.168430  1.0  -0.1489
  C  C2972  1  0.838540  0.390570  0.185190  1.0  -0.1252
  C  C2973  1  0.856040  0.398960  0.210560  1.0  -0.0036
  C  C2974  1  0.781890  0.377320  0.158660  1.0  -0.4051
  C  C2975  1  0.810620  0.408640  0.127850  1.0  -0.3401
  C  C2976  1  0.841210  0.426130  0.220080  1.0  -0.0218
  C  C2977  1  0.712750  0.463740  0.807530  1.0  0.6135
  C  C2978  1  0.706710  0.436040  0.816570  1.0  0.0876
  C  C2979  1  0.684670  0.428450  0.810790  1.0  -0.1372
  C  C2980  1  0.677490  0.399050  0.814920  1.0  -0.0593
  C  C2981  1  0.650040  0.387610  0.805140  1.0  0.0551
  C  C2982  1  0.649700  0.367950  0.828210  1.0  -0.0699
  C  C2983  1  0.668430  0.367040  0.848570  1.0  -0.1476
  C  C2984  1  0.685190  0.390570  0.838540  1.0  -0.1233
  C  C2985  1  0.710560  0.398960  0.856040  1.0  -0.0044
  C  C2986  1  0.658660  0.377320  0.781890  1.0  -0.403
  C  C2987  1  0.627850  0.408640  0.810620  1.0  -0.3422
  C  C2988  1  0.720080  0.426130  0.841210  1.0  -0.0208
  C  C2989  1  0.712750  0.963740  0.307530  1.0  0.6135
  C  C2990  1  0.706710  0.936040  0.316570  1.0  0.0876
  C  C2991  1  0.684670  0.928450  0.310790  1.0  -0.1372
  C  C2992  1  0.677490  0.899050  0.314920  1.0  -0.0593
  C  C2993  1  0.650040  0.887610  0.305140  1.0  0.0551
  C  C2994  1  0.649700  0.867950  0.328210  1.0  -0.0699
  C  C2995  1  0.668430  0.867040  0.348570  1.0  -0.1476
  C  C2996  1  0.685190  0.890570  0.338540  1.0  -0.1233
  C  C2997  1  0.710560  0.898960  0.356040  1.0  -0.0044
  C  C2998  1  0.658660  0.877320  0.281890  1.0  -0.403
  C  C2999  1  0.627850  0.908640  0.310620  1.0  -0.3422
  C  C3000  1  0.720080  0.926130  0.341210  1.0  -0.0208
  C  C3001  1  0.212750  0.463740  0.307530  1.0  0.6135
  C  C3002  1  0.206710  0.436040  0.316570  1.0  0.0876
  C  C3003  1  0.184670  0.428450  0.310790  1.0  -0.1372
  C  C3004  1  0.177490  0.399050  0.314920  1.0  -0.0593
  C  C3005  1  0.150040  0.387610  0.305140  1.0  0.0551
  C  C3006  1  0.149700  0.367950  0.328210  1.0  -0.0699
  C  C3007  1  0.168430  0.367040  0.348570  1.0  -0.1476
  C  C3008  1  0.185190  0.390570  0.338540  1.0  -0.1233
  C  C3009  1  0.210560  0.398960  0.356040  1.0  -0.0044
  C  C3010  1  0.158660  0.377320  0.281890  1.0  -0.403
  C  C3011  1  0.127850  0.408640  0.310620  1.0  -0.3422
  C  C3012  1  0.220080  0.426130  0.341210  1.0  -0.0208
  C  C3013  1  0.212750  0.963740  0.807530  1.0  0.6135
  C  C3014  1  0.206710  0.936040  0.816570  1.0  0.0876
  C  C3015  1  0.184670  0.928450  0.810790  1.0  -0.1372
  C  C3016  1  0.177490  0.899050  0.814920  1.0  -0.0593
  C  C3017  1  0.150040  0.887610  0.805140  1.0  0.0551
  C  C3018  1  0.149700  0.867950  0.828210  1.0  -0.0699
  C  C3019  1  0.168430  0.867040  0.848570  1.0  -0.1476
  C  C3020  1  0.185190  0.890570  0.838540  1.0  -0.1233
  C  C3021  1  0.210560  0.898960  0.856040  1.0  -0.0044
  C  C3022  1  0.158660  0.877320  0.781890  1.0  -0.403
  C  C3023  1  0.127850  0.908640  0.810620  1.0  -0.3422
  C  C3024  1  0.220080  0.926130  0.841210  1.0  -0.0208
  C  C3025  1  0.287250  0.536260  0.807530  1.0  0.6157
  C  C3026  1  0.293290  0.563960  0.816570  1.0  0.0857
  C  C3027  1  0.315330  0.571550  0.810790  1.0  -0.1357
  C  C3028  1  0.322510  0.600950  0.814920  1.0  -0.0617
  C  C3029  1  0.349960  0.612390  0.805140  1.0  0.0557
  C  C3030  1  0.350300  0.632050  0.828210  1.0  -0.0686
  C  C3031  1  0.331570  0.632960  0.848570  1.0  -0.1477
  C  C3032  1  0.314810  0.609430  0.838540  1.0  -0.1213
  C  C3033  1  0.289440  0.601040  0.856040  1.0  -0.0067
  C  C3034  1  0.341340  0.622680  0.781890  1.0  -0.4039
  C  C3035  1  0.372150  0.591360  0.810620  1.0  -0.3398
  C  C3036  1  0.279920  0.573870  0.841210  1.0  -0.0203
  C  C3037  1  0.287250  0.036260  0.307530  1.0  0.6157
  C  C3038  1  0.293290  0.063960  0.316570  1.0  0.0857
  C  C3039  1  0.315330  0.071550  0.310790  1.0  -0.1357
  C  C3040  1  0.322510  0.100950  0.314920  1.0  -0.0617
  C  C3041  1  0.349960  0.112390  0.305140  1.0  0.0557
  C  C3042  1  0.350300  0.132050  0.328210  1.0  -0.0686
  C  C3043  1  0.331570  0.132960  0.348570  1.0  -0.1477
  C  C3044  1  0.314810  0.109430  0.338540  1.0  -0.1213
  C  C3045  1  0.289440  0.101040  0.356040  1.0  -0.0067
  C  C3046  1  0.341340  0.122680  0.281890  1.0  -0.4039
  C  C3047  1  0.372150  0.091360  0.310620  1.0  -0.3398
  C  C3048  1  0.279920  0.073870  0.341210  1.0  -0.0203
  C  C3049  1  0.787250  0.536260  0.307530  1.0  0.6157
  C  C3050  1  0.793290  0.563960  0.316570  1.0  0.0857
  C  C3051  1  0.815330  0.571550  0.310790  1.0  -0.1357
  C  C3052  1  0.822510  0.600950  0.314920  1.0  -0.0617
  C  C3053  1  0.849960  0.612390  0.305140  1.0  0.0557
  C  C3054  1  0.850300  0.632050  0.328210  1.0  -0.0686
  C  C3055  1  0.831570  0.632960  0.348570  1.0  -0.1477
  C  C3056  1  0.814810  0.609430  0.338540  1.0  -0.1213
  C  C3057  1  0.789440  0.601040  0.356040  1.0  -0.0067
  C  C3058  1  0.841340  0.622680  0.281890  1.0  -0.4039
  C  C3059  1  0.872150  0.591360  0.310620  1.0  -0.3398
  C  C3060  1  0.779920  0.573870  0.341210  1.0  -0.0203
  C  C3061  1  0.787250  0.036260  0.807530  1.0  0.6157
  C  C3062  1  0.793290  0.063960  0.816570  1.0  0.0857
  C  C3063  1  0.815330  0.071550  0.810790  1.0  -0.1357
  C  C3064  1  0.822510  0.100950  0.814920  1.0  -0.0617
  C  C3065  1  0.849960  0.112390  0.805140  1.0  0.0557
  C  C3066  1  0.850300  0.132050  0.828210  1.0  -0.0686
  C  C3067  1  0.831570  0.132960  0.848570  1.0  -0.1477
  C  C3068  1  0.814810  0.109430  0.838540  1.0  -0.1213
  C  C3069  1  0.789440  0.101040  0.856040  1.0  -0.0067
  C  C3070  1  0.841340  0.122680  0.781890  1.0  -0.4039
  C  C3071  1  0.872150  0.091360  0.810620  1.0  -0.3398
  C  C3072  1  0.779920  0.073870  0.841210  1.0  -0.0203
  C  C3073  1  0.287250  0.463740  0.192470  1.0  0.6146
  C  C3074  1  0.293290  0.436040  0.183430  1.0  0.0854
  C  C3075  1  0.315330  0.428450  0.189210  1.0  -0.1361
  C  C3076  1  0.322510  0.399050  0.185080  1.0  -0.0646
  C  C3077  1  0.349960  0.387610  0.194860  1.0  0.0557
  C  C3078  1  0.350300  0.367950  0.171790  1.0  -0.0695
  C  C3079  1  0.331570  0.367040  0.151430  1.0  -0.147
  C  C3080  1  0.314810  0.390570  0.161460  1.0  -0.121
  C  C3081  1  0.289440  0.398960  0.143960  1.0  -0.0038
  C  C3082  1  0.341340  0.377320  0.218110  1.0  -0.4038
  C  C3083  1  0.372150  0.408640  0.189380  1.0  -0.3414
  C  C3084  1  0.279920  0.426130  0.158790  1.0  -0.0222
  C  C3085  1  0.287250  0.963740  0.692470  1.0  0.6146
  C  C3086  1  0.293290  0.936040  0.683430  1.0  0.0854
  C  C3087  1  0.315330  0.928450  0.689210  1.0  -0.1361
  C  C3088  1  0.322510  0.899050  0.685080  1.0  -0.0646
  C  C3089  1  0.349960  0.887610  0.694860  1.0  0.0557
  C  C3090  1  0.350300  0.867950  0.671790  1.0  -0.0695
  C  C3091  1  0.331570  0.867040  0.651430  1.0  -0.147
  C  C3092  1  0.314810  0.890570  0.661460  1.0  -0.121
  C  C3093  1  0.289440  0.898960  0.643960  1.0  -0.0038
  C  C3094  1  0.341340  0.877320  0.718110  1.0  -0.4038
  C  C3095  1  0.372150  0.908640  0.689380  1.0  -0.3414
  C  C3096  1  0.279920  0.926130  0.658790  1.0  -0.0222
  C  C3097  1  0.787250  0.463740  0.692470  1.0  0.6146
  C  C3098  1  0.793290  0.436040  0.683430  1.0  0.0854
  C  C3099  1  0.815330  0.428450  0.689210  1.0  -0.1361
  C  C3100  1  0.822510  0.399050  0.685080  1.0  -0.0646
  C  C3101  1  0.849960  0.387610  0.694860  1.0  0.0557
  C  C3102  1  0.850300  0.367950  0.671790  1.0  -0.0695
  C  C3103  1  0.831570  0.367040  0.651430  1.0  -0.147
  C  C3104  1  0.814810  0.390570  0.661460  1.0  -0.121
  C  C3105  1  0.789440  0.398960  0.643960  1.0  -0.0038
  C  C3106  1  0.841340  0.377320  0.718110  1.0  -0.4038
  C  C3107  1  0.872150  0.408640  0.689380  1.0  -0.3414
  C  C3108  1  0.779920  0.426130  0.658790  1.0  -0.0222
  C  C3109  1  0.787250  0.963740  0.192470  1.0  0.6146
  C  C3110  1  0.793290  0.936040  0.183430  1.0  0.0854
  C  C3111  1  0.815330  0.928450  0.189210  1.0  -0.1361
  C  C3112  1  0.822510  0.899050  0.185080  1.0  -0.0646
  C  C3113  1  0.849960  0.887610  0.194860  1.0  0.0557
  C  C3114  1  0.850300  0.867950  0.171790  1.0  -0.0695
  C  C3115  1  0.831570  0.867040  0.151430  1.0  -0.147
  C  C3116  1  0.814810  0.890570  0.161460  1.0  -0.121
  C  C3117  1  0.789440  0.898960  0.143960  1.0  -0.0038
  C  C3118  1  0.841340  0.877320  0.218110  1.0  -0.4038
  C  C3119  1  0.872150  0.908640  0.189380  1.0  -0.3414
  C  C3120  1  0.779920  0.926130  0.158790  1.0  -0.0222
  C  C3121  1  0.712750  0.536260  0.192470  1.0  0.6172
  C  C3122  1  0.706710  0.563960  0.183430  1.0  0.0876
  C  C3123  1  0.684670  0.571550  0.189210  1.0  -0.1369
  C  C3124  1  0.677490  0.600950  0.185080  1.0  -0.0632
  C  C3125  1  0.650040  0.612390  0.194860  1.0  0.0562
  C  C3126  1  0.649700  0.632050  0.171790  1.0  -0.0685
  C  C3127  1  0.668430  0.632960  0.151430  1.0  -0.1476
  C  C3128  1  0.685190  0.609430  0.161460  1.0  -0.1215
  C  C3129  1  0.710560  0.601040  0.143960  1.0  -0.0058
  C  C3130  1  0.658660  0.622680  0.218110  1.0  -0.4028
  C  C3131  1  0.627850  0.591360  0.189380  1.0  -0.3414
  C  C3132  1  0.720080  0.573870  0.158790  1.0  -0.0215
  C  C3133  1  0.712750  0.036260  0.692470  1.0  0.6172
  C  C3134  1  0.706710  0.063960  0.683430  1.0  0.0876
  C  C3135  1  0.684670  0.071550  0.689210  1.0  -0.1369
  C  C3136  1  0.677490  0.100950  0.685080  1.0  -0.0632
  C  C3137  1  0.650040  0.112390  0.694860  1.0  0.0562
  C  C3138  1  0.649700  0.132050  0.671790  1.0  -0.0685
  C  C3139  1  0.668430  0.132960  0.651430  1.0  -0.1476
  C  C3140  1  0.685190  0.109430  0.661460  1.0  -0.1215
  C  C3141  1  0.710560  0.101040  0.643960  1.0  -0.0058
  C  C3142  1  0.658660  0.122680  0.718110  1.0  -0.4028
  C  C3143  1  0.627850  0.091360  0.689380  1.0  -0.3414
  C  C3144  1  0.720080  0.073870  0.658790  1.0  -0.0215
  C  C3145  1  0.212750  0.536260  0.692470  1.0  0.6172
  C  C3146  1  0.206710  0.563960  0.683430  1.0  0.0876
  C  C3147  1  0.184670  0.571550  0.689210  1.0  -0.1369
  C  C3148  1  0.177490  0.600950  0.685080  1.0  -0.0632
  C  C3149  1  0.150040  0.612390  0.694860  1.0  0.0562
  C  C3150  1  0.149700  0.632050  0.671790  1.0  -0.0685
  C  C3151  1  0.168430  0.632960  0.651430  1.0  -0.1476
  C  C3152  1  0.185190  0.609430  0.661460  1.0  -0.1215
  C  C3153  1  0.210560  0.601040  0.643960  1.0  -0.0058
  C  C3154  1  0.158660  0.622680  0.718110  1.0  -0.4028
  C  C3155  1  0.127850  0.591360  0.689380  1.0  -0.3414
  C  C3156  1  0.220080  0.573870  0.658790  1.0  -0.0215
  C  C3157  1  0.212750  0.036260  0.192470  1.0  0.6172
  C  C3158  1  0.206710  0.063960  0.183430  1.0  0.0876
  C  C3159  1  0.184670  0.071550  0.189210  1.0  -0.1369
  C  C3160  1  0.177490  0.100950  0.185080  1.0  -0.0632
  C  C3161  1  0.150040  0.112390  0.194860  1.0  0.0562
  C  C3162  1  0.149700  0.132050  0.171790  1.0  -0.0685
  C  C3163  1  0.168430  0.132960  0.151430  1.0  -0.1476
  C  C3164  1  0.185190  0.109430  0.161460  1.0  -0.1215
  C  C3165  1  0.210560  0.101040  0.143960  1.0  -0.0058
  C  C3166  1  0.158660  0.122680  0.218110  1.0  -0.4028
  C  C3167  1  0.127850  0.091360  0.189380  1.0  -0.3414
  C  C3168  1  0.220080  0.073870  0.158790  1.0  -0.0215
  C  C3169  1  0.807530  0.712750  0.463740  1.0  0.615
  C  C3170  1  0.816570  0.706710  0.436040  1.0  0.0857
  C  C3171  1  0.810790  0.684670  0.428450  1.0  -0.1347
  C  C3172  1  0.814920  0.677490  0.399050  1.0  -0.0618
  C  C3173  1  0.805140  0.650040  0.387610  1.0  0.0564
  C  C3174  1  0.828210  0.649700  0.367950  1.0  -0.0706
  C  C3175  1  0.848570  0.668430  0.367040  1.0  -0.1504
  C  C3176  1  0.838540  0.685190  0.390570  1.0  -0.1231
  C  C3177  1  0.856040  0.710560  0.398960  1.0  -0.0044
  C  C3178  1  0.781890  0.658660  0.377320  1.0  -0.4055
  C  C3179  1  0.810620  0.627850  0.408640  1.0  -0.3408
  C  C3180  1  0.841210  0.720080  0.426130  1.0  -0.0218
  C  C3181  1  0.807530  0.212750  0.963740  1.0  0.615
  C  C3182  1  0.816570  0.206710  0.936040  1.0  0.0857
  C  C3183  1  0.810790  0.184670  0.928450  1.0  -0.1347
  C  C3184  1  0.814920  0.177490  0.899050  1.0  -0.0618
  C  C3185  1  0.805140  0.150040  0.887610  1.0  0.0564
  C  C3186  1  0.828210  0.149700  0.867950  1.0  -0.0706
  C  C3187  1  0.848570  0.168430  0.867040  1.0  -0.1504
  C  C3188  1  0.838540  0.185190  0.890570  1.0  -0.1231
  C  C3189  1  0.856040  0.210560  0.898960  1.0  -0.0044
  C  C3190  1  0.781890  0.158660  0.877320  1.0  -0.4055
  C  C3191  1  0.810620  0.127850  0.908640  1.0  -0.3408
  C  C3192  1  0.841210  0.220080  0.926130  1.0  -0.0218
  C  C3193  1  0.307530  0.712750  0.963740  1.0  0.615
  C  C3194  1  0.316570  0.706710  0.936040  1.0  0.0857
  C  C3195  1  0.310790  0.684670  0.928450  1.0  -0.1347
  C  C3196  1  0.314920  0.677490  0.899050  1.0  -0.0618
  C  C3197  1  0.305140  0.650040  0.887610  1.0  0.0564
  C  C3198  1  0.328210  0.649700  0.867950  1.0  -0.0706
  C  C3199  1  0.348570  0.668430  0.867040  1.0  -0.1504
  C  C3200  1  0.338540  0.685190  0.890570  1.0  -0.1231
  C  C3201  1  0.356040  0.710560  0.898960  1.0  -0.0044
  C  C3202  1  0.281890  0.658660  0.877320  1.0  -0.4055
  C  C3203  1  0.310620  0.627850  0.908640  1.0  -0.3408
  C  C3204  1  0.341210  0.720080  0.926130  1.0  -0.0218
  C  C3205  1  0.307530  0.212750  0.463740  1.0  0.615
  C  C3206  1  0.316570  0.206710  0.436040  1.0  0.0857
  C  C3207  1  0.310790  0.184670  0.428450  1.0  -0.1347
  C  C3208  1  0.314920  0.177490  0.399050  1.0  -0.0618
  C  C3209  1  0.305140  0.150040  0.387610  1.0  0.0564
  C  C3210  1  0.328210  0.149700  0.367950  1.0  -0.0706
  C  C3211  1  0.348570  0.168430  0.367040  1.0  -0.1504
  C  C3212  1  0.338540  0.185190  0.390570  1.0  -0.1231
  C  C3213  1  0.356040  0.210560  0.398960  1.0  -0.0044
  C  C3214  1  0.281890  0.158660  0.377320  1.0  -0.4055
  C  C3215  1  0.310620  0.127850  0.408640  1.0  -0.3408
  C  C3216  1  0.341210  0.220080  0.426130  1.0  -0.0218
  C  C3217  1  0.807530  0.287250  0.536260  1.0  0.6133
  C  C3218  1  0.816570  0.293290  0.563960  1.0  0.0918
  C  C3219  1  0.810790  0.315330  0.571550  1.0  -0.1341
  C  C3220  1  0.814920  0.322510  0.600950  1.0  -0.0616
  C  C3221  1  0.805140  0.349960  0.612390  1.0  0.0571
  C  C3222  1  0.828210  0.350300  0.632050  1.0  -0.07
  C  C3223  1  0.848570  0.331570  0.632960  1.0  -0.1499
  C  C3224  1  0.838540  0.314810  0.609430  1.0  -0.1232
  C  C3225  1  0.856040  0.289440  0.601040  1.0  -0.0023
  C  C3226  1  0.781890  0.341340  0.622680  1.0  -0.4055
  C  C3227  1  0.810620  0.372150  0.591360  1.0  -0.3404
  C  C3228  1  0.841210  0.279920  0.573870  1.0  -0.0204
  C  C3229  1  0.807530  0.787250  0.036260  1.0  0.6133
  C  C3230  1  0.816570  0.793290  0.063960  1.0  0.0918
  C  C3231  1  0.810790  0.815330  0.071550  1.0  -0.1341
  C  C3232  1  0.814920  0.822510  0.100950  1.0  -0.0616
  C  C3233  1  0.805140  0.849960  0.112390  1.0  0.0571
  C  C3234  1  0.828210  0.850300  0.132050  1.0  -0.07
  C  C3235  1  0.848570  0.831570  0.132960  1.0  -0.1499
  C  C3236  1  0.838540  0.814810  0.109430  1.0  -0.1232
  C  C3237  1  0.856040  0.789440  0.101040  1.0  -0.0023
  C  C3238  1  0.781890  0.841340  0.122680  1.0  -0.4055
  C  C3239  1  0.810620  0.872150  0.091360  1.0  -0.3404
  C  C3240  1  0.841210  0.779920  0.073870  1.0  -0.0204
  C  C3241  1  0.307530  0.287250  0.036260  1.0  0.6133
  C  C3242  1  0.316570  0.293290  0.063960  1.0  0.0918
  C  C3243  1  0.310790  0.315330  0.071550  1.0  -0.1341
  C  C3244  1  0.314920  0.322510  0.100950  1.0  -0.0616
  C  C3245  1  0.305140  0.349960  0.112390  1.0  0.0571
  C  C3246  1  0.328210  0.350300  0.132050  1.0  -0.07
  C  C3247  1  0.348570  0.331570  0.132960  1.0  -0.1499
  C  C3248  1  0.338540  0.314810  0.109430  1.0  -0.1232
  C  C3249  1  0.356040  0.289440  0.101040  1.0  -0.0023
  C  C3250  1  0.281890  0.341340  0.122680  1.0  -0.4055
  C  C3251  1  0.310620  0.372150  0.091360  1.0  -0.3404
  C  C3252  1  0.341210  0.279920  0.073870  1.0  -0.0204
  C  C3253  1  0.307530  0.787250  0.536260  1.0  0.6133
  C  C3254  1  0.316570  0.793290  0.563960  1.0  0.0918
  C  C3255  1  0.310790  0.815330  0.571550  1.0  -0.1341
  C  C3256  1  0.314920  0.822510  0.600950  1.0  -0.0616
  C  C3257  1  0.305140  0.849960  0.612390  1.0  0.0571
  C  C3258  1  0.328210  0.850300  0.632050  1.0  -0.07
  C  C3259  1  0.348570  0.831570  0.632960  1.0  -0.1499
  C  C3260  1  0.338540  0.814810  0.609430  1.0  -0.1232
  C  C3261  1  0.356040  0.789440  0.601040  1.0  -0.0023
  C  C3262  1  0.281890  0.841340  0.622680  1.0  -0.4055
  C  C3263  1  0.310620  0.872150  0.591360  1.0  -0.3404
  C  C3264  1  0.341210  0.779920  0.573870  1.0  -0.0204
  C  C3265  1  0.192470  0.287250  0.463740  1.0  0.6143
  C  C3266  1  0.183430  0.293290  0.436040  1.0  0.0905
  C  C3267  1  0.189210  0.315330  0.428450  1.0  -0.1336
  C  C3268  1  0.185080  0.322510  0.399050  1.0  -0.0599
  C  C3269  1  0.194860  0.349960  0.387610  1.0  0.0556
  C  C3270  1  0.171790  0.350300  0.367950  1.0  -0.0705
  C  C3271  1  0.151430  0.331570  0.367040  1.0  -0.15
  C  C3272  1  0.161460  0.314810  0.390570  1.0  -0.1235
  C  C3273  1  0.143960  0.289440  0.398960  1.0  -0.0038
  C  C3274  1  0.218110  0.341340  0.377320  1.0  -0.404
  C  C3275  1  0.189380  0.372150  0.408640  1.0  -0.3411
  C  C3276  1  0.158790  0.279920  0.426130  1.0  -0.0194
  C  C3277  1  0.192470  0.787250  0.963740  1.0  0.6143
  C  C3278  1  0.183430  0.793290  0.936040  1.0  0.0905
  C  C3279  1  0.189210  0.815330  0.928450  1.0  -0.1336
  C  C3280  1  0.185080  0.822510  0.899050  1.0  -0.0599
  C  C3281  1  0.194860  0.849960  0.887610  1.0  0.0556
  C  C3282  1  0.171790  0.850300  0.867950  1.0  -0.0705
  C  C3283  1  0.151430  0.831570  0.867040  1.0  -0.15
  C  C3284  1  0.161460  0.814810  0.890570  1.0  -0.1235
  C  C3285  1  0.143960  0.789440  0.898960  1.0  -0.0038
  C  C3286  1  0.218110  0.841340  0.877320  1.0  -0.404
  C  C3287  1  0.189380  0.872150  0.908640  1.0  -0.3411
  C  C3288  1  0.158790  0.779920  0.926130  1.0  -0.0194
  C  C3289  1  0.692470  0.287250  0.963740  1.0  0.6143
  C  C3290  1  0.683430  0.293290  0.936040  1.0  0.0905
  C  C3291  1  0.689210  0.315330  0.928450  1.0  -0.1336
  C  C3292  1  0.685080  0.322510  0.899050  1.0  -0.0599
  C  C3293  1  0.694860  0.349960  0.887610  1.0  0.0556
  C  C3294  1  0.671790  0.350300  0.867950  1.0  -0.0705
  C  C3295  1  0.651430  0.331570  0.867040  1.0  -0.15
  C  C3296  1  0.661460  0.314810  0.890570  1.0  -0.1235
  C  C3297  1  0.643960  0.289440  0.898960  1.0  -0.0038
  C  C3298  1  0.718110  0.341340  0.877320  1.0  -0.404
  C  C3299  1  0.689380  0.372150  0.908640  1.0  -0.3411
  C  C3300  1  0.658790  0.279920  0.926130  1.0  -0.0194
  C  C3301  1  0.692470  0.787250  0.463740  1.0  0.6143
  C  C3302  1  0.683430  0.793290  0.436040  1.0  0.0905
  C  C3303  1  0.689210  0.815330  0.428450  1.0  -0.1336
  C  C3304  1  0.685080  0.822510  0.399050  1.0  -0.0599
  C  C3305  1  0.694860  0.849960  0.387610  1.0  0.0556
  C  C3306  1  0.671790  0.850300  0.367950  1.0  -0.0705
  C  C3307  1  0.651430  0.831570  0.367040  1.0  -0.15
  C  C3308  1  0.661460  0.814810  0.390570  1.0  -0.1235
  C  C3309  1  0.643960  0.789440  0.398960  1.0  -0.0038
  C  C3310  1  0.718110  0.841340  0.377320  1.0  -0.404
  C  C3311  1  0.689380  0.872150  0.408640  1.0  -0.3411
  C  C3312  1  0.658790  0.779920  0.426130  1.0  -0.0194
  C  C3313  1  0.192470  0.712750  0.536260  1.0  0.6137
  C  C3314  1  0.183430  0.706710  0.563960  1.0  0.0876
  C  C3315  1  0.189210  0.684670  0.571550  1.0  -0.1337
  C  C3316  1  0.185080  0.677490  0.600950  1.0  -0.0597
  C  C3317  1  0.194860  0.650040  0.612390  1.0  0.0565
  C  C3318  1  0.171790  0.649700  0.632050  1.0  -0.07
  C  C3319  1  0.151430  0.668430  0.632960  1.0  -0.1505
  C  C3320  1  0.161460  0.685190  0.609430  1.0  -0.1227
  C  C3321  1  0.143960  0.710560  0.601040  1.0  -0.0057
  C  C3322  1  0.218110  0.658660  0.622680  1.0  -0.403
  C  C3323  1  0.189380  0.627850  0.591360  1.0  -0.3363
  C  C3324  1  0.158790  0.720080  0.573870  1.0  -0.0212
  C  C3325  1  0.192470  0.212750  0.036260  1.0  0.6137
  C  C3326  1  0.183430  0.206710  0.063960  1.0  0.0876
  C  C3327  1  0.189210  0.184670  0.071550  1.0  -0.1337
  C  C3328  1  0.185080  0.177490  0.100950  1.0  -0.0597
  C  C3329  1  0.194860  0.150040  0.112390  1.0  0.0565
  C  C3330  1  0.171790  0.149700  0.132050  1.0  -0.07
  C  C3331  1  0.151430  0.168430  0.132960  1.0  -0.1505
  C  C3332  1  0.161460  0.185190  0.109430  1.0  -0.1227
  C  C3333  1  0.143960  0.210560  0.101040  1.0  -0.0057
  C  C3334  1  0.218110  0.158660  0.122680  1.0  -0.403
  C  C3335  1  0.189380  0.127850  0.091360  1.0  -0.3363
  C  C3336  1  0.158790  0.220080  0.073870  1.0  -0.0212
  C  C3337  1  0.692470  0.712750  0.036260  1.0  0.6137
  C  C3338  1  0.683430  0.706710  0.063960  1.0  0.0876
  C  C3339  1  0.689210  0.684670  0.071550  1.0  -0.1337
  C  C3340  1  0.685080  0.677490  0.100950  1.0  -0.0597
  C  C3341  1  0.694860  0.650040  0.112390  1.0  0.0565
  C  C3342  1  0.671790  0.649700  0.132050  1.0  -0.07
  C  C3343  1  0.651430  0.668430  0.132960  1.0  -0.1505
  C  C3344  1  0.661460  0.685190  0.109430  1.0  -0.1227
  C  C3345  1  0.643960  0.710560  0.101040  1.0  -0.0057
  C  C3346  1  0.718110  0.658660  0.122680  1.0  -0.403
  C  C3347  1  0.689380  0.627850  0.091360  1.0  -0.3363
  C  C3348  1  0.658790  0.720080  0.073870  1.0  -0.0212
  C  C3349  1  0.692470  0.212750  0.536260  1.0  0.6137
  C  C3350  1  0.683430  0.206710  0.563960  1.0  0.0876
  C  C3351  1  0.689210  0.184670  0.571550  1.0  -0.1337
  C  C3352  1  0.685080  0.177490  0.600950  1.0  -0.0597
  C  C3353  1  0.694860  0.150040  0.612390  1.0  0.0565
  C  C3354  1  0.671790  0.149700  0.632050  1.0  -0.07
  C  C3355  1  0.651430  0.168430  0.632960  1.0  -0.1505
  C  C3356  1  0.661460  0.185190  0.609430  1.0  -0.1227
  C  C3357  1  0.643960  0.210560  0.601040  1.0  -0.0057
  C  C3358  1  0.718110  0.158660  0.622680  1.0  -0.403
  C  C3359  1  0.689380  0.127850  0.591360  1.0  -0.3363
  C  C3360  1  0.658790  0.220080  0.573870  1.0  -0.0212
  C  C3361  1  0.463740  0.807530  0.712750  1.0  0.6084
  C  C3362  1  0.436040  0.816570  0.706710  1.0  0.0877
  C  C3363  1  0.428450  0.810790  0.684670  1.0  -0.1335
  C  C3364  1  0.399050  0.814920  0.677490  1.0  -0.0593
  C  C3365  1  0.387610  0.805140  0.650040  1.0  0.0568
  C  C3366  1  0.367950  0.828210  0.649700  1.0  -0.0689
  C  C3367  1  0.367040  0.848570  0.668430  1.0  -0.1509
  C  C3368  1  0.390570  0.838540  0.685190  1.0  -0.1223
  C  C3369  1  0.398960  0.856040  0.710560  1.0  -0.0062
  C  C3370  1  0.377320  0.781890  0.658660  1.0  -0.404
  C  C3371  1  0.408640  0.810620  0.627850  1.0  -0.3388
  C  C3372  1  0.426130  0.841210  0.720080  1.0  -0.0182
  C  C3373  1  0.463740  0.307530  0.212750  1.0  0.6084
  C  C3374  1  0.436040  0.316570  0.206710  1.0  0.0877
  C  C3375  1  0.428450  0.310790  0.184670  1.0  -0.1335
  C  C3376  1  0.399050  0.314920  0.177490  1.0  -0.0593
  C  C3377  1  0.387610  0.305140  0.150040  1.0  0.0568
  C  C3378  1  0.367950  0.328210  0.149700  1.0  -0.0689
  C  C3379  1  0.367040  0.348570  0.168430  1.0  -0.1509
  C  C3380  1  0.390570  0.338540  0.185190  1.0  -0.1223
  C  C3381  1  0.398960  0.356040  0.210560  1.0  -0.0062
  C  C3382  1  0.377320  0.281890  0.158660  1.0  -0.404
  C  C3383  1  0.408640  0.310620  0.127850  1.0  -0.3388
  C  C3384  1  0.426130  0.341210  0.220080  1.0  -0.0182
  C  C3385  1  0.963740  0.807530  0.212750  1.0  0.6084
  C  C3386  1  0.936040  0.816570  0.206710  1.0  0.0877
  C  C3387  1  0.928450  0.810790  0.184670  1.0  -0.1335
  C  C3388  1  0.899050  0.814920  0.177490  1.0  -0.0593
  C  C3389  1  0.887610  0.805140  0.150040  1.0  0.0568
  C  C3390  1  0.867950  0.828210  0.149700  1.0  -0.0689
  C  C3391  1  0.867040  0.848570  0.168430  1.0  -0.1509
  C  C3392  1  0.890570  0.838540  0.185190  1.0  -0.1223
  C  C3393  1  0.898960  0.856040  0.210560  1.0  -0.0062
  C  C3394  1  0.877320  0.781890  0.158660  1.0  -0.404
  C  C3395  1  0.908640  0.810620  0.127850  1.0  -0.3388
  C  C3396  1  0.926130  0.841210  0.220080  1.0  -0.0182
  C  C3397  1  0.963740  0.307530  0.712750  1.0  0.6084
  C  C3398  1  0.936040  0.316570  0.706710  1.0  0.0877
  C  C3399  1  0.928450  0.310790  0.684670  1.0  -0.1335
  C  C3400  1  0.899050  0.314920  0.677490  1.0  -0.0593
  C  C3401  1  0.887610  0.305140  0.650040  1.0  0.0568
  C  C3402  1  0.867950  0.328210  0.649700  1.0  -0.0689
  C  C3403  1  0.867040  0.348570  0.668430  1.0  -0.1509
  C  C3404  1  0.890570  0.338540  0.685190  1.0  -0.1223
  C  C3405  1  0.898960  0.356040  0.710560  1.0  -0.0062
  C  C3406  1  0.877320  0.281890  0.658660  1.0  -0.404
  C  C3407  1  0.908640  0.310620  0.627850  1.0  -0.3388
  C  C3408  1  0.926130  0.341210  0.720080  1.0  -0.0182
  C  C3409  1  0.536260  0.807530  0.287250  1.0  0.6088
  C  C3410  1  0.563960  0.816570  0.293290  1.0  0.0884
  C  C3411  1  0.571550  0.810790  0.315330  1.0  -0.1348
  C  C3412  1  0.600950  0.814920  0.322510  1.0  -0.0593
  C  C3413  1  0.612390  0.805140  0.349960  1.0  0.0563
  C  C3414  1  0.632050  0.828210  0.350300  1.0  -0.0703
  C  C3415  1  0.632960  0.848570  0.331570  1.0  -0.1504
  C  C3416  1  0.609430  0.838540  0.314810  1.0  -0.1209
  C  C3417  1  0.601040  0.856040  0.289440  1.0  -0.0041
  C  C3418  1  0.622680  0.781890  0.341340  1.0  -0.4035
  C  C3419  1  0.591360  0.810620  0.372150  1.0  -0.3415
  C  C3420  1  0.573870  0.841210  0.279920  1.0  -0.0182
  C  C3421  1  0.536260  0.307530  0.787250  1.0  0.6088
  C  C3422  1  0.563960  0.316570  0.793290  1.0  0.0884
  C  C3423  1  0.571550  0.310790  0.815330  1.0  -0.1348
  C  C3424  1  0.600950  0.314920  0.822510  1.0  -0.0593
  C  C3425  1  0.612390  0.305140  0.849960  1.0  0.0563
  C  C3426  1  0.632050  0.328210  0.850300  1.0  -0.0703
  C  C3427  1  0.632960  0.348570  0.831570  1.0  -0.1504
  C  C3428  1  0.609430  0.338540  0.814810  1.0  -0.1209
  C  C3429  1  0.601040  0.356040  0.789440  1.0  -0.0041
  C  C3430  1  0.622680  0.281890  0.841340  1.0  -0.4035
  C  C3431  1  0.591360  0.310620  0.872150  1.0  -0.3415
  C  C3432  1  0.573870  0.341210  0.779920  1.0  -0.0182
  C  C3433  1  0.036260  0.807530  0.787250  1.0  0.6088
  C  C3434  1  0.063960  0.816570  0.793290  1.0  0.0884
  C  C3435  1  0.071550  0.810790  0.815330  1.0  -0.1348
  C  C3436  1  0.100950  0.814920  0.822510  1.0  -0.0593
  C  C3437  1  0.112390  0.805140  0.849960  1.0  0.0563
  C  C3438  1  0.132050  0.828210  0.850300  1.0  -0.0703
  C  C3439  1  0.132960  0.848570  0.831570  1.0  -0.1504
  C  C3440  1  0.109430  0.838540  0.814810  1.0  -0.1209
  C  C3441  1  0.101040  0.856040  0.789440  1.0  -0.0041
  C  C3442  1  0.122680  0.781890  0.841340  1.0  -0.4035
  C  C3443  1  0.091360  0.810620  0.872150  1.0  -0.3415
  C  C3444  1  0.073870  0.841210  0.779920  1.0  -0.0182
  C  C3445  1  0.036260  0.307530  0.287250  1.0  0.6088
  C  C3446  1  0.063960  0.316570  0.293290  1.0  0.0884
  C  C3447  1  0.071550  0.310790  0.315330  1.0  -0.1348
  C  C3448  1  0.100950  0.314920  0.322510  1.0  -0.0593
  C  C3449  1  0.112390  0.305140  0.349960  1.0  0.0563
  C  C3450  1  0.132050  0.328210  0.350300  1.0  -0.0703
  C  C3451  1  0.132960  0.348570  0.331570  1.0  -0.1504
  C  C3452  1  0.109430  0.338540  0.314810  1.0  -0.1209
  C  C3453  1  0.101040  0.356040  0.289440  1.0  -0.0041
  C  C3454  1  0.122680  0.281890  0.341340  1.0  -0.4035
  C  C3455  1  0.091360  0.310620  0.372150  1.0  -0.3415
  C  C3456  1  0.073870  0.341210  0.279920  1.0  -0.0182
  C  C3457  1  0.463740  0.192470  0.287250  1.0  0.6141
  C  C3458  1  0.436040  0.183430  0.293290  1.0  0.0875
  C  C3459  1  0.428450  0.189210  0.315330  1.0  -0.1336
  C  C3460  1  0.399050  0.185080  0.322510  1.0  -0.0586
  C  C3461  1  0.387610  0.194860  0.349960  1.0  0.0563
  C  C3462  1  0.367950  0.171790  0.350300  1.0  -0.0695
  C  C3463  1  0.367040  0.151430  0.331570  1.0  -0.1516
  C  C3464  1  0.390570  0.161460  0.314810  1.0  -0.1225
  C  C3465  1  0.398960  0.143960  0.289440  1.0  -0.003
  C  C3466  1  0.377320  0.218110  0.341340  1.0  -0.402
  C  C3467  1  0.408640  0.189380  0.372150  1.0  -0.3391
  C  C3468  1  0.426130  0.158790  0.279920  1.0  -0.0181
  C  C3469  1  0.463740  0.692470  0.787250  1.0  0.6141
  C  C3470  1  0.436040  0.683430  0.793290  1.0  0.0875
  C  C3471  1  0.428450  0.689210  0.815330  1.0  -0.1336
  C  C3472  1  0.399050  0.685080  0.822510  1.0  -0.0586
  C  C3473  1  0.387610  0.694860  0.849960  1.0  0.0563
  C  C3474  1  0.367950  0.671790  0.850300  1.0  -0.0695
  C  C3475  1  0.367040  0.651430  0.831570  1.0  -0.1516
  C  C3476  1  0.390570  0.661460  0.814810  1.0  -0.1225
  C  C3477  1  0.398960  0.643960  0.789440  1.0  -0.003
  C  C3478  1  0.377320  0.718110  0.841340  1.0  -0.402
  C  C3479  1  0.408640  0.689380  0.872150  1.0  -0.3391
  C  C3480  1  0.426130  0.658790  0.779920  1.0  -0.0181
  C  C3481  1  0.963740  0.192470  0.787250  1.0  0.6141
  C  C3482  1  0.936040  0.183430  0.793290  1.0  0.0875
  C  C3483  1  0.928450  0.189210  0.815330  1.0  -0.1336
  C  C3484  1  0.899050  0.185080  0.822510  1.0  -0.0586
  C  C3485  1  0.887610  0.194860  0.849960  1.0  0.0563
  C  C3486  1  0.867950  0.171790  0.850300  1.0  -0.0695
  C  C3487  1  0.867040  0.151430  0.831570  1.0  -0.1516
  C  C3488  1  0.890570  0.161460  0.814810  1.0  -0.1225
  C  C3489  1  0.898960  0.143960  0.789440  1.0  -0.003
  C  C3490  1  0.877320  0.218110  0.841340  1.0  -0.402
  C  C3491  1  0.908640  0.189380  0.872150  1.0  -0.3391
  C  C3492  1  0.926130  0.158790  0.779920  1.0  -0.0181
  C  C3493  1  0.963740  0.692470  0.287250  1.0  0.6141
  C  C3494  1  0.936040  0.683430  0.293290  1.0  0.0875
  C  C3495  1  0.928450  0.689210  0.315330  1.0  -0.1336
  C  C3496  1  0.899050  0.685080  0.322510  1.0  -0.0586
  C  C3497  1  0.887610  0.694860  0.349960  1.0  0.0563
  C  C3498  1  0.867950  0.671790  0.350300  1.0  -0.0695
  C  C3499  1  0.867040  0.651430  0.331570  1.0  -0.1516
  C  C3500  1  0.890570  0.661460  0.314810  1.0  -0.1225
  C  C3501  1  0.898960  0.643960  0.289440  1.0  -0.003
  C  C3502  1  0.877320  0.718110  0.341340  1.0  -0.402
  C  C3503  1  0.908640  0.689380  0.372150  1.0  -0.3391
  C  C3504  1  0.926130  0.658790  0.279920  1.0  -0.0181
  C  C3505  1  0.536260  0.192470  0.712750  1.0  0.6139
  C  C3506  1  0.563960  0.183430  0.706710  1.0  0.0883
  C  C3507  1  0.571550  0.189210  0.684670  1.0  -0.1345
  C  C3508  1  0.600950  0.185080  0.677490  1.0  -0.0611
  C  C3509  1  0.612390  0.194860  0.650040  1.0  0.0565
  C  C3510  1  0.632050  0.171790  0.649700  1.0  -0.0697
  C  C3511  1  0.632960  0.151430  0.668430  1.0  -0.1505
  C  C3512  1  0.609430  0.161460  0.685190  1.0  -0.1213
  C  C3513  1  0.601040  0.143960  0.710560  1.0  -0.0004
  C  C3514  1  0.622680  0.218110  0.658660  1.0  -0.404
  C  C3515  1  0.591360  0.189380  0.627850  1.0  -0.3396
  C  C3516  1  0.573870  0.158790  0.720080  1.0  -0.016
  C  C3517  1  0.536260  0.692470  0.212750  1.0  0.6139
  C  C3518  1  0.563960  0.683430  0.206710  1.0  0.0883
  C  C3519  1  0.571550  0.689210  0.184670  1.0  -0.1345
  C  C3520  1  0.600950  0.685080  0.177490  1.0  -0.0611
  C  C3521  1  0.612390  0.694860  0.150040  1.0  0.0565
  C  C3522  1  0.632050  0.671790  0.149700  1.0  -0.0697
  C  C3523  1  0.632960  0.651430  0.168430  1.0  -0.1505
  C  C3524  1  0.609430  0.661460  0.185190  1.0  -0.1213
  C  C3525  1  0.601040  0.643960  0.210560  1.0  -0.0004
  C  C3526  1  0.622680  0.718110  0.158660  1.0  -0.404
  C  C3527  1  0.591360  0.689380  0.127850  1.0  -0.3396
  C  C3528  1  0.573870  0.658790  0.220080  1.0  -0.016
  C  C3529  1  0.036260  0.192470  0.212750  1.0  0.6139
  C  C3530  1  0.063960  0.183430  0.206710  1.0  0.0883
  C  C3531  1  0.071550  0.189210  0.184670  1.0  -0.1345
  C  C3532  1  0.100950  0.185080  0.177490  1.0  -0.0611
  C  C3533  1  0.112390  0.194860  0.150040  1.0  0.0565
  C  C3534  1  0.132050  0.171790  0.149700  1.0  -0.0697
  C  C3535  1  0.132960  0.151430  0.168430  1.0  -0.1505
  C  C3536  1  0.109430  0.161460  0.185190  1.0  -0.1213
  C  C3537  1  0.101040  0.143960  0.210560  1.0  -0.0004
  C  C3538  1  0.122680  0.218110  0.158660  1.0  -0.404
  C  C3539  1  0.091360  0.189380  0.127850  1.0  -0.3396
  C  C3540  1  0.073870  0.158790  0.220080  1.0  -0.016
  C  C3541  1  0.036260  0.692470  0.712750  1.0  0.6139
  C  C3542  1  0.063960  0.683430  0.706710  1.0  0.0883
  C  C3543  1  0.071550  0.689210  0.684670  1.0  -0.1345
  C  C3544  1  0.100950  0.685080  0.677490  1.0  -0.0611
  C  C3545  1  0.112390  0.694860  0.650040  1.0  0.0565
  C  C3546  1  0.132050  0.671790  0.649700  1.0  -0.0697
  C  C3547  1  0.132960  0.651430  0.668430  1.0  -0.1505
  C  C3548  1  0.109430  0.661460  0.685190  1.0  -0.1213
  C  C3549  1  0.101040  0.643960  0.710560  1.0  -0.0004
  C  C3550  1  0.122680  0.718110  0.658660  1.0  -0.404
  C  C3551  1  0.091360  0.689380  0.627850  1.0  -0.3396
  C  C3552  1  0.073870  0.658790  0.720080  1.0  -0.016
  C  C3553  1  0.963740  0.212750  0.692470  1.0  0.6144
  C  C3554  1  0.936040  0.206710  0.683430  1.0  0.0862
  C  C3555  1  0.928450  0.184670  0.689210  1.0  -0.1334
  C  C3556  1  0.899050  0.177490  0.685080  1.0  -0.0639
  C  C3557  1  0.887610  0.150040  0.694860  1.0  0.0561
  C  C3558  1  0.867950  0.149700  0.671790  1.0  -0.0691
  C  C3559  1  0.867040  0.168430  0.651430  1.0  -0.1501
  C  C3560  1  0.890570  0.185190  0.661460  1.0  -0.121
  C  C3561  1  0.898960  0.210560  0.643960  1.0  -0.0062
  C  C3562  1  0.877320  0.158660  0.718110  1.0  -0.4018
  C  C3563  1  0.908640  0.127850  0.689380  1.0  -0.3401
  C  C3564  1  0.926130  0.220080  0.658790  1.0  -0.0182
  C  C3565  1  0.963740  0.712750  0.192470  1.0  0.6144
  C  C3566  1  0.936040  0.706710  0.183430  1.0  0.0862
  C  C3567  1  0.928450  0.684670  0.189210  1.0  -0.1334
  C  C3568  1  0.899050  0.677490  0.185080  1.0  -0.0639
  C  C3569  1  0.887610  0.650040  0.194860  1.0  0.0561
  C  C3570  1  0.867950  0.649700  0.171790  1.0  -0.0691
  C  C3571  1  0.867040  0.668430  0.151430  1.0  -0.1501
  C  C3572  1  0.890570  0.685190  0.161460  1.0  -0.121
  C  C3573  1  0.898960  0.710560  0.143960  1.0  -0.0062
  C  C3574  1  0.877320  0.658660  0.218110  1.0  -0.4018
  C  C3575  1  0.908640  0.627850  0.189380  1.0  -0.3401
  C  C3576  1  0.926130  0.720080  0.158790  1.0  -0.0182
  C  C3577  1  0.463740  0.212750  0.192470  1.0  0.6144
  C  C3578  1  0.436040  0.206710  0.183430  1.0  0.0862
  C  C3579  1  0.428450  0.184670  0.189210  1.0  -0.1334
  C  C3580  1  0.399050  0.177490  0.185080  1.0  -0.0639
  C  C3581  1  0.387610  0.150040  0.194860  1.0  0.0561
  C  C3582  1  0.367950  0.149700  0.171790  1.0  -0.0691
  C  C3583  1  0.367040  0.168430  0.151430  1.0  -0.1501
  C  C3584  1  0.390570  0.185190  0.161460  1.0  -0.121
  C  C3585  1  0.398960  0.210560  0.143960  1.0  -0.0062
  C  C3586  1  0.377320  0.158660  0.218110  1.0  -0.4018
  C  C3587  1  0.408640  0.127850  0.189380  1.0  -0.3401
  C  C3588  1  0.426130  0.220080  0.158790  1.0  -0.0182
  C  C3589  1  0.463740  0.712750  0.692470  1.0  0.6144
  C  C3590  1  0.436040  0.706710  0.683430  1.0  0.0862
  C  C3591  1  0.428450  0.684670  0.689210  1.0  -0.1334
  C  C3592  1  0.399050  0.677490  0.685080  1.0  -0.0639
  C  C3593  1  0.387610  0.650040  0.694860  1.0  0.0561
  C  C3594  1  0.367950  0.649700  0.671790  1.0  -0.0691
  C  C3595  1  0.367040  0.668430  0.651430  1.0  -0.1501
  C  C3596  1  0.390570  0.685190  0.661460  1.0  -0.121
  C  C3597  1  0.398960  0.710560  0.643960  1.0  -0.0062
  C  C3598  1  0.377320  0.658660  0.718110  1.0  -0.4018
  C  C3599  1  0.408640  0.627850  0.689380  1.0  -0.3401
  C  C3600  1  0.426130  0.720080  0.658790  1.0  -0.0182
  C  C3601  1  0.036260  0.787250  0.692470  1.0  0.6136
  C  C3602  1  0.063960  0.793290  0.683430  1.0  0.0911
  C  C3603  1  0.071550  0.815330  0.689210  1.0  -0.1347
  C  C3604  1  0.100950  0.822510  0.685080  1.0  -0.0639
  C  C3605  1  0.112390  0.849960  0.694860  1.0  0.0558
  C  C3606  1  0.132050  0.850300  0.671790  1.0  -0.0698
  C  C3607  1  0.132960  0.831570  0.651430  1.0  -0.1489
  C  C3608  1  0.109430  0.814810  0.661460  1.0  -0.1209
  C  C3609  1  0.101040  0.789440  0.643960  1.0  -0.0022
  C  C3610  1  0.122680  0.841340  0.718110  1.0  -0.4024
  C  C3611  1  0.091360  0.872150  0.689380  1.0  -0.3425
  C  C3612  1  0.073870  0.779920  0.658790  1.0  -0.0155
  C  C3613  1  0.036260  0.287250  0.192470  1.0  0.6136
  C  C3614  1  0.063960  0.293290  0.183430  1.0  0.0911
  C  C3615  1  0.071550  0.315330  0.189210  1.0  -0.1347
  C  C3616  1  0.100950  0.322510  0.185080  1.0  -0.0639
  C  C3617  1  0.112390  0.349960  0.194860  1.0  0.0558
  C  C3618  1  0.132050  0.350300  0.171790  1.0  -0.0698
  C  C3619  1  0.132960  0.331570  0.151430  1.0  -0.1489
  C  C3620  1  0.109430  0.314810  0.161460  1.0  -0.1209
  C  C3621  1  0.101040  0.289440  0.143960  1.0  -0.0022
  C  C3622  1  0.122680  0.341340  0.218110  1.0  -0.4024
  C  C3623  1  0.091360  0.372150  0.189380  1.0  -0.3425
  C  C3624  1  0.073870  0.279920  0.158790  1.0  -0.0155
  C  C3625  1  0.536260  0.787250  0.192470  1.0  0.6136
  C  C3626  1  0.563960  0.793290  0.183430  1.0  0.0911
  C  C3627  1  0.571550  0.815330  0.189210  1.0  -0.1347
  C  C3628  1  0.600950  0.822510  0.185080  1.0  -0.0639
  C  C3629  1  0.612390  0.849960  0.194860  1.0  0.0558
  C  C3630  1  0.632050  0.850300  0.171790  1.0  -0.0698
  C  C3631  1  0.632960  0.831570  0.151430  1.0  -0.1489
  C  C3632  1  0.609430  0.814810  0.161460  1.0  -0.1209
  C  C3633  1  0.601040  0.789440  0.143960  1.0  -0.0022
  C  C3634  1  0.622680  0.841340  0.218110  1.0  -0.4024
  C  C3635  1  0.591360  0.872150  0.189380  1.0  -0.3425
  C  C3636  1  0.573870  0.779920  0.158790  1.0  -0.0155
  C  C3637  1  0.536260  0.287250  0.692470  1.0  0.6136
  C  C3638  1  0.563960  0.293290  0.683430  1.0  0.0911
  C  C3639  1  0.571550  0.315330  0.689210  1.0  -0.1347
  C  C3640  1  0.600950  0.322510  0.685080  1.0  -0.0639
  C  C3641  1  0.612390  0.349960  0.694860  1.0  0.0558
  C  C3642  1  0.632050  0.350300  0.671790  1.0  -0.0698
  C  C3643  1  0.632960  0.331570  0.651430  1.0  -0.1489
  C  C3644  1  0.609430  0.314810  0.661460  1.0  -0.1209
  C  C3645  1  0.601040  0.289440  0.643960  1.0  -0.0022
  C  C3646  1  0.622680  0.341340  0.718110  1.0  -0.4024
  C  C3647  1  0.591360  0.372150  0.689380  1.0  -0.3425
  C  C3648  1  0.573870  0.279920  0.658790  1.0  -0.0155
  C  C3649  1  0.963740  0.787250  0.307530  1.0  0.6123
  C  C3650  1  0.936040  0.793290  0.316570  1.0  0.0912
  C  C3651  1  0.928450  0.815330  0.310790  1.0  -0.1334
  C  C3652  1  0.899050  0.822510  0.314920  1.0  -0.06
  C  C3653  1  0.887610  0.849960  0.305140  1.0  0.0554
  C  C3654  1  0.867950  0.850300  0.328210  1.0  -0.0692
  C  C3655  1  0.867040  0.831570  0.348570  1.0  -0.1501
  C  C3656  1  0.890570  0.814810  0.338540  1.0  -0.1223
  C  C3657  1  0.898960  0.789440  0.356040  1.0  -0.0053
  C  C3658  1  0.877320  0.841340  0.281890  1.0  -0.4014
  C  C3659  1  0.908640  0.872150  0.310620  1.0  -0.3419
  C  C3660  1  0.926130  0.779920  0.341210  1.0  -0.0152
  C  C3661  1  0.963740  0.287250  0.807530  1.0  0.6123
  C  C3662  1  0.936040  0.293290  0.816570  1.0  0.0912
  C  C3663  1  0.928450  0.315330  0.810790  1.0  -0.1334
  C  C3664  1  0.899050  0.322510  0.814920  1.0  -0.06
  C  C3665  1  0.887610  0.349960  0.805140  1.0  0.0554
  C  C3666  1  0.867950  0.350300  0.828210  1.0  -0.0692
  C  C3667  1  0.867040  0.331570  0.848570  1.0  -0.1501
  C  C3668  1  0.890570  0.314810  0.838540  1.0  -0.1223
  C  C3669  1  0.898960  0.289440  0.856040  1.0  -0.0053
  C  C3670  1  0.877320  0.341340  0.781890  1.0  -0.4014
  C  C3671  1  0.908640  0.372150  0.810620  1.0  -0.3419
  C  C3672  1  0.926130  0.279920  0.841210  1.0  -0.0152
  C  C3673  1  0.463740  0.787250  0.807530  1.0  0.6123
  C  C3674  1  0.436040  0.793290  0.816570  1.0  0.0912
  C  C3675  1  0.428450  0.815330  0.810790  1.0  -0.1334
  C  C3676  1  0.399050  0.822510  0.814920  1.0  -0.06
  C  C3677  1  0.387610  0.849960  0.805140  1.0  0.0554
  C  C3678  1  0.367950  0.850300  0.828210  1.0  -0.0692
  C  C3679  1  0.367040  0.831570  0.848570  1.0  -0.1501
  C  C3680  1  0.390570  0.814810  0.838540  1.0  -0.1223
  C  C3681  1  0.398960  0.789440  0.856040  1.0  -0.0053
  C  C3682  1  0.377320  0.841340  0.781890  1.0  -0.4014
  C  C3683  1  0.408640  0.872150  0.810620  1.0  -0.3419
  C  C3684  1  0.426130  0.779920  0.841210  1.0  -0.0152
  C  C3685  1  0.463740  0.287250  0.307530  1.0  0.6123
  C  C3686  1  0.436040  0.293290  0.316570  1.0  0.0912
  C  C3687  1  0.428450  0.315330  0.310790  1.0  -0.1334
  C  C3688  1  0.399050  0.322510  0.314920  1.0  -0.06
  C  C3689  1  0.387610  0.349960  0.305140  1.0  0.0554
  C  C3690  1  0.367950  0.350300  0.328210  1.0  -0.0692
  C  C3691  1  0.367040  0.331570  0.348570  1.0  -0.1501
  C  C3692  1  0.390570  0.314810  0.338540  1.0  -0.1223
  C  C3693  1  0.398960  0.289440  0.356040  1.0  -0.0053
  C  C3694  1  0.377320  0.341340  0.281890  1.0  -0.4014
  C  C3695  1  0.408640  0.372150  0.310620  1.0  -0.3419
  C  C3696  1  0.426130  0.279920  0.341210  1.0  -0.0152
  C  C3697  1  0.036260  0.212750  0.307530  1.0  0.6124
  C  C3698  1  0.063960  0.206710  0.316570  1.0  0.087
  C  C3699  1  0.071550  0.184670  0.310790  1.0  -0.1349
  C  C3700  1  0.100950  0.177490  0.314920  1.0  -0.0608
  C  C3701  1  0.112390  0.150040  0.305140  1.0  0.0553
  C  C3702  1  0.132050  0.149700  0.328210  1.0  -0.0699
  C  C3703  1  0.132960  0.168430  0.348570  1.0  -0.1497
  C  C3704  1  0.109430  0.185190  0.338540  1.0  -0.1212
  C  C3705  1  0.101040  0.210560  0.356040  1.0  -0.0049
  C  C3706  1  0.122680  0.158660  0.281890  1.0  -0.4022
  C  C3707  1  0.091360  0.127850  0.310620  1.0  -0.3419
  C  C3708  1  0.073870  0.220080  0.341210  1.0  -0.0169
  C  C3709  1  0.036260  0.712750  0.807530  1.0  0.6124
  C  C3710  1  0.063960  0.706710  0.816570  1.0  0.087
  C  C3711  1  0.071550  0.684670  0.810790  1.0  -0.1349
  C  C3712  1  0.100950  0.677490  0.814920  1.0  -0.0608
  C  C3713  1  0.112390  0.650040  0.805140  1.0  0.0553
  C  C3714  1  0.132050  0.649700  0.828210  1.0  -0.0699
  C  C3715  1  0.132960  0.668430  0.848570  1.0  -0.1497
  C  C3716  1  0.109430  0.685190  0.838540  1.0  -0.1212
  C  C3717  1  0.101040  0.710560  0.856040  1.0  -0.0049
  C  C3718  1  0.122680  0.658660  0.781890  1.0  -0.4022
  C  C3719  1  0.091360  0.627850  0.810620  1.0  -0.3419
  C  C3720  1  0.073870  0.720080  0.841210  1.0  -0.0169
  C  C3721  1  0.536260  0.212750  0.807530  1.0  0.6124
  C  C3722  1  0.563960  0.206710  0.816570  1.0  0.087
  C  C3723  1  0.571550  0.184670  0.810790  1.0  -0.1349
  C  C3724  1  0.600950  0.177490  0.814920  1.0  -0.0608
  C  C3725  1  0.612390  0.150040  0.805140  1.0  0.0553
  C  C3726  1  0.632050  0.149700  0.828210  1.0  -0.0699
  C  C3727  1  0.632960  0.168430  0.848570  1.0  -0.1497
  C  C3728  1  0.609430  0.185190  0.838540  1.0  -0.1212
  C  C3729  1  0.601040  0.210560  0.856040  1.0  -0.0049
  C  C3730  1  0.622680  0.158660  0.781890  1.0  -0.4022
  C  C3731  1  0.591360  0.127850  0.810620  1.0  -0.3419
  C  C3732  1  0.573870  0.220080  0.841210  1.0  -0.0169
  C  C3733  1  0.536260  0.712750  0.307530  1.0  0.6124
  C  C3734  1  0.563960  0.706710  0.316570  1.0  0.087
  C  C3735  1  0.571550  0.684670  0.310790  1.0  -0.1349
  C  C3736  1  0.600950  0.677490  0.314920  1.0  -0.0608
  C  C3737  1  0.612390  0.650040  0.305140  1.0  0.0553
  C  C3738  1  0.632050  0.649700  0.328210  1.0  -0.0699
  C  C3739  1  0.632960  0.668430  0.348570  1.0  -0.1497
  C  C3740  1  0.609430  0.685190  0.338540  1.0  -0.1212
  C  C3741  1  0.601040  0.710560  0.356040  1.0  -0.0049
  C  C3742  1  0.622680  0.658660  0.281890  1.0  -0.4022
  C  C3743  1  0.591360  0.627850  0.310620  1.0  -0.3419
  C  C3744  1  0.573870  0.720080  0.341210  1.0  -0.0169
  C  C3745  1  0.212750  0.307530  0.036260  1.0  0.6092
  C  C3746  1  0.206710  0.316570  0.063960  1.0  0.0878
  C  C3747  1  0.184670  0.310790  0.071550  1.0  -0.1347
  C  C3748  1  0.177490  0.314920  0.100950  1.0  -0.0588
  C  C3749  1  0.150040  0.305140  0.112390  1.0  0.0567
  C  C3750  1  0.149700  0.328210  0.132050  1.0  -0.0688
  C  C3751  1  0.168430  0.348570  0.132960  1.0  -0.1495
  C  C3752  1  0.185190  0.338540  0.109430  1.0  -0.1211
  C  C3753  1  0.210560  0.356040  0.101040  1.0  -0.0046
  C  C3754  1  0.158660  0.281890  0.122680  1.0  -0.405
  C  C3755  1  0.127850  0.310620  0.091360  1.0  -0.3404
  C  C3756  1  0.220080  0.341210  0.073870  1.0  -0.022
  C  C3757  1  0.212750  0.807530  0.536260  1.0  0.6092
  C  C3758  1  0.206710  0.816570  0.563960  1.0  0.0878
  C  C3759  1  0.184670  0.810790  0.571550  1.0  -0.1347
  C  C3760  1  0.177490  0.814920  0.600950  1.0  -0.0588
  C  C3761  1  0.150040  0.805140  0.612390  1.0  0.0567
  C  C3762  1  0.149700  0.828210  0.632050  1.0  -0.0688
  C  C3763  1  0.168430  0.848570  0.632960  1.0  -0.1495
  C  C3764  1  0.185190  0.838540  0.609430  1.0  -0.1211
  C  C3765  1  0.210560  0.856040  0.601040  1.0  -0.0046
  C  C3766  1  0.158660  0.781890  0.622680  1.0  -0.405
  C  C3767  1  0.127850  0.810620  0.591360  1.0  -0.3404
  C  C3768  1  0.220080  0.841210  0.573870  1.0  -0.022
  C  C3769  1  0.712750  0.307530  0.536260  1.0  0.6092
  C  C3770  1  0.706710  0.316570  0.563960  1.0  0.0878
  C  C3771  1  0.684670  0.310790  0.571550  1.0  -0.1347
  C  C3772  1  0.677490  0.314920  0.600950  1.0  -0.0588
  C  C3773  1  0.650040  0.305140  0.612390  1.0  0.0567
  C  C3774  1  0.649700  0.328210  0.632050  1.0  -0.0688
  C  C3775  1  0.668430  0.348570  0.632960  1.0  -0.1495
  C  C3776  1  0.685190  0.338540  0.609430  1.0  -0.1211
  C  C3777  1  0.710560  0.356040  0.601040  1.0  -0.0046
  C  C3778  1  0.658660  0.281890  0.622680  1.0  -0.405
  C  C3779  1  0.627850  0.310620  0.591360  1.0  -0.3404
  C  C3780  1  0.720080  0.341210  0.573870  1.0  -0.022
  C  C3781  1  0.712750  0.807530  0.036260  1.0  0.6092
  C  C3782  1  0.706710  0.816570  0.063960  1.0  0.0878
  C  C3783  1  0.684670  0.810790  0.071550  1.0  -0.1347
  C  C3784  1  0.677490  0.814920  0.100950  1.0  -0.0588
  C  C3785  1  0.650040  0.805140  0.112390  1.0  0.0567
  C  C3786  1  0.649700  0.828210  0.132050  1.0  -0.0688
  C  C3787  1  0.668430  0.848570  0.132960  1.0  -0.1495
  C  C3788  1  0.685190  0.838540  0.109430  1.0  -0.1211
  C  C3789  1  0.710560  0.856040  0.101040  1.0  -0.0046
  C  C3790  1  0.658660  0.781890  0.122680  1.0  -0.405
  C  C3791  1  0.627850  0.810620  0.091360  1.0  -0.3404
  C  C3792  1  0.720080  0.841210  0.073870  1.0  -0.022
  C  C3793  1  0.787250  0.307530  0.963740  1.0  0.6107
  C  C3794  1  0.793290  0.316570  0.936040  1.0  0.0848
  C  C3795  1  0.815330  0.310790  0.928450  1.0  -0.1337
  C  C3796  1  0.822510  0.314920  0.899050  1.0  -0.0606
  C  C3797  1  0.849960  0.305140  0.887610  1.0  0.056
  C  C3798  1  0.850300  0.328210  0.867950  1.0  -0.0692
  C  C3799  1  0.831570  0.348570  0.867040  1.0  -0.1492
  C  C3800  1  0.814810  0.338540  0.890570  1.0  -0.1196
  C  C3801  1  0.789440  0.356040  0.898960  1.0  -0.0046
  C  C3802  1  0.841340  0.281890  0.877320  1.0  -0.4064
  C  C3803  1  0.872150  0.310620  0.908640  1.0  -0.3409
  C  C3804  1  0.779920  0.341210  0.926130  1.0  -0.0217
  C  C3805  1  0.787250  0.807530  0.463740  1.0  0.6107
  C  C3806  1  0.793290  0.816570  0.436040  1.0  0.0848
  C  C3807  1  0.815330  0.810790  0.428450  1.0  -0.1337
  C  C3808  1  0.822510  0.814920  0.399050  1.0  -0.0606
  C  C3809  1  0.849960  0.805140  0.387610  1.0  0.056
  C  C3810  1  0.850300  0.828210  0.367950  1.0  -0.0692
  C  C3811  1  0.831570  0.848570  0.367040  1.0  -0.1492
  C  C3812  1  0.814810  0.838540  0.390570  1.0  -0.1196
  C  C3813  1  0.789440  0.856040  0.398960  1.0  -0.0046
  C  C3814  1  0.841340  0.781890  0.377320  1.0  -0.4064
  C  C3815  1  0.872150  0.810620  0.408640  1.0  -0.3409
  C  C3816  1  0.779920  0.841210  0.426130  1.0  -0.0217
  C  C3817  1  0.287250  0.307530  0.463740  1.0  0.6107
  C  C3818  1  0.293290  0.316570  0.436040  1.0  0.0848
  C  C3819  1  0.315330  0.310790  0.428450  1.0  -0.1337
  C  C3820  1  0.322510  0.314920  0.399050  1.0  -0.0606
  C  C3821  1  0.349960  0.305140  0.387610  1.0  0.056
  C  C3822  1  0.350300  0.328210  0.367950  1.0  -0.0692
  C  C3823  1  0.331570  0.348570  0.367040  1.0  -0.1492
  C  C3824  1  0.314810  0.338540  0.390570  1.0  -0.1196
  C  C3825  1  0.289440  0.356040  0.398960  1.0  -0.0046
  C  C3826  1  0.341340  0.281890  0.377320  1.0  -0.4064
  C  C3827  1  0.372150  0.310620  0.408640  1.0  -0.3409
  C  C3828  1  0.279920  0.341210  0.426130  1.0  -0.0217
  C  C3829  1  0.287250  0.807530  0.963740  1.0  0.6107
  C  C3830  1  0.293290  0.816570  0.936040  1.0  0.0848
  C  C3831  1  0.315330  0.810790  0.928450  1.0  -0.1337
  C  C3832  1  0.322510  0.814920  0.899050  1.0  -0.0606
  C  C3833  1  0.349960  0.805140  0.887610  1.0  0.056
  C  C3834  1  0.350300  0.828210  0.867950  1.0  -0.0692
  C  C3835  1  0.331570  0.848570  0.867040  1.0  -0.1492
  C  C3836  1  0.314810  0.838540  0.890570  1.0  -0.1196
  C  C3837  1  0.289440  0.856040  0.898960  1.0  -0.0046
  C  C3838  1  0.341340  0.781890  0.877320  1.0  -0.4064
  C  C3839  1  0.372150  0.810620  0.908640  1.0  -0.3409
  C  C3840  1  0.279920  0.841210  0.926130  1.0  -0.0217
  C  C3841  1  0.787250  0.692470  0.036260  1.0  0.615
  C  C3842  1  0.793290  0.683430  0.063960  1.0  0.0855
  C  C3843  1  0.815330  0.689210  0.071550  1.0  -0.1333
  C  C3844  1  0.822510  0.685080  0.100950  1.0  -0.0604
  C  C3845  1  0.849960  0.694860  0.112390  1.0  0.0564
  C  C3846  1  0.850300  0.671790  0.132050  1.0  -0.0687
  C  C3847  1  0.831570  0.651430  0.132960  1.0  -0.1498
  C  C3848  1  0.814810  0.661460  0.109430  1.0  -0.1207
  C  C3849  1  0.789440  0.643960  0.101040  1.0  -0.0013
  C  C3850  1  0.841340  0.718110  0.122680  1.0  -0.4056
  C  C3851  1  0.872150  0.689380  0.091360  1.0  -0.3384
  C  C3852  1  0.779920  0.658790  0.073870  1.0  -0.0208
  C  C3853  1  0.787250  0.192470  0.536260  1.0  0.615
  C  C3854  1  0.793290  0.183430  0.563960  1.0  0.0855
  C  C3855  1  0.815330  0.189210  0.571550  1.0  -0.1333
  C  C3856  1  0.822510  0.185080  0.600950  1.0  -0.0604
  C  C3857  1  0.849960  0.194860  0.612390  1.0  0.0564
  C  C3858  1  0.850300  0.171790  0.632050  1.0  -0.0687
  C  C3859  1  0.831570  0.151430  0.632960  1.0  -0.1498
  C  C3860  1  0.814810  0.161460  0.609430  1.0  -0.1207
  C  C3861  1  0.789440  0.143960  0.601040  1.0  -0.0013
  C  C3862  1  0.841340  0.218110  0.622680  1.0  -0.4056
  C  C3863  1  0.872150  0.189380  0.591360  1.0  -0.3384
  C  C3864  1  0.779920  0.158790  0.573870  1.0  -0.0208
  C  C3865  1  0.287250  0.692470  0.536260  1.0  0.615
  C  C3866  1  0.293290  0.683430  0.563960  1.0  0.0855
  C  C3867  1  0.315330  0.689210  0.571550  1.0  -0.1333
  C  C3868  1  0.322510  0.685080  0.600950  1.0  -0.0604
  C  C3869  1  0.349960  0.694860  0.612390  1.0  0.0564
  C  C3870  1  0.350300  0.671790  0.632050  1.0  -0.0687
  C  C3871  1  0.331570  0.651430  0.632960  1.0  -0.1498
  C  C3872  1  0.314810  0.661460  0.609430  1.0  -0.1207
  C  C3873  1  0.289440  0.643960  0.601040  1.0  -0.0013
  C  C3874  1  0.341340  0.718110  0.622680  1.0  -0.4056
  C  C3875  1  0.372150  0.689380  0.591360  1.0  -0.3384
  C  C3876  1  0.279920  0.658790  0.573870  1.0  -0.0208
  C  C3877  1  0.287250  0.192470  0.036260  1.0  0.615
  C  C3878  1  0.293290  0.183430  0.063960  1.0  0.0855
  C  C3879  1  0.315330  0.189210  0.071550  1.0  -0.1333
  C  C3880  1  0.322510  0.185080  0.100950  1.0  -0.0604
  C  C3881  1  0.349960  0.194860  0.112390  1.0  0.0564
  C  C3882  1  0.350300  0.171790  0.132050  1.0  -0.0687
  C  C3883  1  0.331570  0.151430  0.132960  1.0  -0.1498
  C  C3884  1  0.314810  0.161460  0.109430  1.0  -0.1207
  C  C3885  1  0.289440  0.143960  0.101040  1.0  -0.0013
  C  C3886  1  0.341340  0.218110  0.122680  1.0  -0.4056
  C  C3887  1  0.372150  0.189380  0.091360  1.0  -0.3384
  C  C3888  1  0.279920  0.158790  0.073870  1.0  -0.0208
  C  C3889  1  0.212750  0.692470  0.963740  1.0  0.6164
  C  C3890  1  0.206710  0.683430  0.936040  1.0  0.0863
  C  C3891  1  0.184670  0.689210  0.928450  1.0  -0.135
  C  C3892  1  0.177490  0.685080  0.899050  1.0  -0.0593
  C  C3893  1  0.150040  0.694860  0.887610  1.0  0.0558
  C  C3894  1  0.149700  0.671790  0.867950  1.0  -0.0699
  C  C3895  1  0.168430  0.651430  0.867040  1.0  -0.15
  C  C3896  1  0.185190  0.661460  0.890570  1.0  -0.1216
  C  C3897  1  0.210560  0.643960  0.898960  1.0  -0.0008
  C  C3898  1  0.158660  0.718110  0.877320  1.0  -0.4053
  C  C3899  1  0.127850  0.689380  0.908640  1.0  -0.3416
  C  C3900  1  0.220080  0.658790  0.926130  1.0  -0.0197
  C  C3901  1  0.212750  0.192470  0.463740  1.0  0.6164
  C  C3902  1  0.206710  0.183430  0.436040  1.0  0.0863
  C  C3903  1  0.184670  0.189210  0.428450  1.0  -0.135
  C  C3904  1  0.177490  0.185080  0.399050  1.0  -0.0593
  C  C3905  1  0.150040  0.194860  0.387610  1.0  0.0558
  C  C3906  1  0.149700  0.171790  0.367950  1.0  -0.0699
  C  C3907  1  0.168430  0.151430  0.367040  1.0  -0.15
  C  C3908  1  0.185190  0.161460  0.390570  1.0  -0.1216
  C  C3909  1  0.210560  0.143960  0.398960  1.0  -0.0008
  C  C3910  1  0.158660  0.218110  0.377320  1.0  -0.4053
  C  C3911  1  0.127850  0.189380  0.408640  1.0  -0.3416
  C  C3912  1  0.220080  0.158790  0.426130  1.0  -0.0197
  C  C3913  1  0.712750  0.692470  0.463740  1.0  0.6164
  C  C3914  1  0.706710  0.683430  0.436040  1.0  0.0863
  C  C3915  1  0.684670  0.689210  0.428450  1.0  -0.135
  C  C3916  1  0.677490  0.685080  0.399050  1.0  -0.0593
  C  C3917  1  0.650040  0.694860  0.387610  1.0  0.0558
  C  C3918  1  0.649700  0.671790  0.367950  1.0  -0.0699
  C  C3919  1  0.668430  0.651430  0.367040  1.0  -0.15
  C  C3920  1  0.685190  0.661460  0.390570  1.0  -0.1216
  C  C3921  1  0.710560  0.643960  0.398960  1.0  -0.0008
  C  C3922  1  0.658660  0.718110  0.377320  1.0  -0.4053
  C  C3923  1  0.627850  0.689380  0.408640  1.0  -0.3416
  C  C3924  1  0.720080  0.658790  0.426130  1.0  -0.0197
  C  C3925  1  0.712750  0.192470  0.963740  1.0  0.6164
  C  C3926  1  0.706710  0.183430  0.936040  1.0  0.0863
  C  C3927  1  0.684670  0.189210  0.928450  1.0  -0.135
  C  C3928  1  0.677490  0.185080  0.899050  1.0  -0.0593
  C  C3929  1  0.650040  0.194860  0.887610  1.0  0.0558
  C  C3930  1  0.649700  0.171790  0.867950  1.0  -0.0699
  C  C3931  1  0.668430  0.151430  0.867040  1.0  -0.15
  C  C3932  1  0.685190  0.161460  0.890570  1.0  -0.1216
  C  C3933  1  0.710560  0.143960  0.898960  1.0  -0.0008
  C  C3934  1  0.658660  0.218110  0.877320  1.0  -0.4053
  C  C3935  1  0.627850  0.189380  0.908640  1.0  -0.3416
  C  C3936  1  0.720080  0.158790  0.926130  1.0  -0.0197
  C  C3937  1  0.307530  0.963740  0.787250  1.0  0.6142
  C  C3938  1  0.316570  0.936040  0.793290  1.0  0.0878
  C  C3939  1  0.310790  0.928450  0.815330  1.0  -0.1366
  C  C3940  1  0.314920  0.899050  0.822510  1.0  -0.0607
  C  C3941  1  0.305140  0.887610  0.849960  1.0  0.0566
  C  C3942  1  0.328210  0.867950  0.850300  1.0  -0.0708
  C  C3943  1  0.348570  0.867040  0.831570  1.0  -0.1491
  C  C3944  1  0.338540  0.890570  0.814810  1.0  -0.1251
  C  C3945  1  0.356040  0.898960  0.789440  1.0  -0.0033
  C  C3946  1  0.281890  0.877320  0.841340  1.0  -0.4042
  C  C3947  1  0.310620  0.908640  0.872150  1.0  -0.3412
  C  C3948  1  0.341210  0.926130  0.779920  1.0  -0.0228
  C  C3949  1  0.307530  0.463740  0.287250  1.0  0.6142
  C  C3950  1  0.316570  0.436040  0.293290  1.0  0.0878
  C  C3951  1  0.310790  0.428450  0.315330  1.0  -0.1366
  C  C3952  1  0.314920  0.399050  0.322510  1.0  -0.0607
  C  C3953  1  0.305140  0.387610  0.349960  1.0  0.0566
  C  C3954  1  0.328210  0.367950  0.350300  1.0  -0.0708
  C  C3955  1  0.348570  0.367040  0.331570  1.0  -0.1491
  C  C3956  1  0.338540  0.390570  0.314810  1.0  -0.1251
  C  C3957  1  0.356040  0.398960  0.289440  1.0  -0.0033
  C  C3958  1  0.281890  0.377320  0.341340  1.0  -0.4042
  C  C3959  1  0.310620  0.408640  0.372150  1.0  -0.3412
  C  C3960  1  0.341210  0.426130  0.279920  1.0  -0.0228
  C  C3961  1  0.807530  0.963740  0.287250  1.0  0.6142
  C  C3962  1  0.816570  0.936040  0.293290  1.0  0.0878
  C  C3963  1  0.810790  0.928450  0.315330  1.0  -0.1366
  C  C3964  1  0.814920  0.899050  0.322510  1.0  -0.0607
  C  C3965  1  0.805140  0.887610  0.349960  1.0  0.0566
  C  C3966  1  0.828210  0.867950  0.350300  1.0  -0.0708
  C  C3967  1  0.848570  0.867040  0.331570  1.0  -0.1491
  C  C3968  1  0.838540  0.890570  0.314810  1.0  -0.1251
  C  C3969  1  0.856040  0.898960  0.289440  1.0  -0.0033
  C  C3970  1  0.781890  0.877320  0.341340  1.0  -0.4042
  C  C3971  1  0.810620  0.908640  0.372150  1.0  -0.3412
  C  C3972  1  0.841210  0.926130  0.279920  1.0  -0.0228
  C  C3973  1  0.807530  0.463740  0.787250  1.0  0.6142
  C  C3974  1  0.816570  0.436040  0.793290  1.0  0.0878
  C  C3975  1  0.810790  0.428450  0.815330  1.0  -0.1366
  C  C3976  1  0.814920  0.399050  0.822510  1.0  -0.0607
  C  C3977  1  0.805140  0.387610  0.849960  1.0  0.0566
  C  C3978  1  0.828210  0.367950  0.850300  1.0  -0.0708
  C  C3979  1  0.848570  0.367040  0.831570  1.0  -0.1491
  C  C3980  1  0.838540  0.390570  0.814810  1.0  -0.1251
  C  C3981  1  0.856040  0.398960  0.789440  1.0  -0.0033
  C  C3982  1  0.781890  0.377320  0.841340  1.0  -0.4042
  C  C3983  1  0.810620  0.408640  0.872150  1.0  -0.3412
  C  C3984  1  0.841210  0.426130  0.779920  1.0  -0.0228
  C  C3985  1  0.307530  0.036260  0.212750  1.0  0.6164
  C  C3986  1  0.316570  0.063960  0.206710  1.0  0.0876
  C  C3987  1  0.310790  0.071550  0.184670  1.0  -0.1366
  C  C3988  1  0.314920  0.100950  0.177490  1.0  -0.0627
  C  C3989  1  0.305140  0.112390  0.150040  1.0  0.0578
  C  C3990  1  0.328210  0.132050  0.149700  1.0  -0.0694
  C  C3991  1  0.348570  0.132960  0.168430  1.0  -0.1493
  C  C3992  1  0.338540  0.109430  0.185190  1.0  -0.1242
  C  C3993  1  0.356040  0.101040  0.210560  1.0  -0.0056
  C  C3994  1  0.281890  0.122680  0.158660  1.0  -0.4049
  C  C3995  1  0.310620  0.091360  0.127850  1.0  -0.3376
  C  C3996  1  0.341210  0.073870  0.220080  1.0  -0.0214
  C  C3997  1  0.307530  0.536260  0.712750  1.0  0.6164
  C  C3998  1  0.316570  0.563960  0.706710  1.0  0.0876
  C  C3999  1  0.310790  0.571550  0.684670  1.0  -0.1366
  C  C4000  1  0.314920  0.600950  0.677490  1.0  -0.0627
  C  C4001  1  0.305140  0.612390  0.650040  1.0  0.0578
  C  C4002  1  0.328210  0.632050  0.649700  1.0  -0.0694
  C  C4003  1  0.348570  0.632960  0.668430  1.0  -0.1493
  C  C4004  1  0.338540  0.609430  0.685190  1.0  -0.1242
  C  C4005  1  0.356040  0.601040  0.710560  1.0  -0.0056
  C  C4006  1  0.281890  0.622680  0.658660  1.0  -0.4049
  C  C4007  1  0.310620  0.591360  0.627850  1.0  -0.3376
  C  C4008  1  0.341210  0.573870  0.720080  1.0  -0.0214
  C  C4009  1  0.807530  0.036260  0.712750  1.0  0.6164
  C  C4010  1  0.816570  0.063960  0.706710  1.0  0.0876
  C  C4011  1  0.810790  0.071550  0.684670  1.0  -0.1366
  C  C4012  1  0.814920  0.100950  0.677490  1.0  -0.0627
  C  C4013  1  0.805140  0.112390  0.650040  1.0  0.0578
  C  C4014  1  0.828210  0.132050  0.649700  1.0  -0.0694
  C  C4015  1  0.848570  0.132960  0.668430  1.0  -0.1493
  C  C4016  1  0.838540  0.109430  0.685190  1.0  -0.1242
  C  C4017  1  0.856040  0.101040  0.710560  1.0  -0.0056
  C  C4018  1  0.781890  0.122680  0.658660  1.0  -0.4049
  C  C4019  1  0.810620  0.091360  0.627850  1.0  -0.3376
  C  C4020  1  0.841210  0.073870  0.720080  1.0  -0.0214
  C  C4021  1  0.807530  0.536260  0.212750  1.0  0.6164
  C  C4022  1  0.816570  0.563960  0.206710  1.0  0.0876
  C  C4023  1  0.810790  0.571550  0.184670  1.0  -0.1366
  C  C4024  1  0.814920  0.600950  0.177490  1.0  -0.0627
  C  C4025  1  0.805140  0.612390  0.150040  1.0  0.0578
  C  C4026  1  0.828210  0.632050  0.149700  1.0  -0.0694
  C  C4027  1  0.848570  0.632960  0.168430  1.0  -0.1493
  C  C4028  1  0.838540  0.609430  0.185190  1.0  -0.1242
  C  C4029  1  0.856040  0.601040  0.210560  1.0  -0.0056
  C  C4030  1  0.781890  0.622680  0.158660  1.0  -0.4049
  C  C4031  1  0.810620  0.591360  0.127850  1.0  -0.3376
  C  C4032  1  0.841210  0.573870  0.220080  1.0  -0.0214
  C  C4033  1  0.692470  0.963740  0.212750  1.0  0.6134
  C  C4034  1  0.683430  0.936040  0.206710  1.0  0.0882
  C  C4035  1  0.689210  0.928450  0.184670  1.0  -0.1362
  C  C4036  1  0.685080  0.899050  0.177490  1.0  -0.0602
  C  C4037  1  0.694860  0.887610  0.150040  1.0  0.0565
  C  C4038  1  0.671790  0.867950  0.149700  1.0  -0.0706
  C  C4039  1  0.651430  0.867040  0.168430  1.0  -0.149
  C  C4040  1  0.661460  0.890570  0.185190  1.0  -0.1246
  C  C4041  1  0.643960  0.898960  0.210560  1.0  -0.0046
  C  C4042  1  0.718110  0.877320  0.158660  1.0  -0.4033
  C  C4043  1  0.689380  0.908640  0.127850  1.0  -0.3381
  C  C4044  1  0.658790  0.926130  0.220080  1.0  -0.0219
  C  C4045  1  0.692470  0.463740  0.712750  1.0  0.6134
  C  C4046  1  0.683430  0.436040  0.706710  1.0  0.0882
  C  C4047  1  0.689210  0.428450  0.684670  1.0  -0.1362
  C  C4048  1  0.685080  0.399050  0.677490  1.0  -0.0602
  C  C4049  1  0.694860  0.387610  0.650040  1.0  0.0565
  C  C4050  1  0.671790  0.367950  0.649700  1.0  -0.0706
  C  C4051  1  0.651430  0.367040  0.668430  1.0  -0.149
  C  C4052  1  0.661460  0.390570  0.685190  1.0  -0.1246
  C  C4053  1  0.643960  0.398960  0.710560  1.0  -0.0046
  C  C4054  1  0.718110  0.377320  0.658660  1.0  -0.4033
  C  C4055  1  0.689380  0.408640  0.627850  1.0  -0.3381
  C  C4056  1  0.658790  0.426130  0.720080  1.0  -0.0219
  C  C4057  1  0.192470  0.963740  0.712750  1.0  0.6134
  C  C4058  1  0.183430  0.936040  0.706710  1.0  0.0882
  C  C4059  1  0.189210  0.928450  0.684670  1.0  -0.1362
  C  C4060  1  0.185080  0.899050  0.677490  1.0  -0.0602
  C  C4061  1  0.194860  0.887610  0.650040  1.0  0.0565
  C  C4062  1  0.171790  0.867950  0.649700  1.0  -0.0706
  C  C4063  1  0.151430  0.867040  0.668430  1.0  -0.149
  C  C4064  1  0.161460  0.890570  0.685190  1.0  -0.1246
  C  C4065  1  0.143960  0.898960  0.710560  1.0  -0.0046
  C  C4066  1  0.218110  0.877320  0.658660  1.0  -0.4033
  C  C4067  1  0.189380  0.908640  0.627850  1.0  -0.3381
  C  C4068  1  0.158790  0.926130  0.720080  1.0  -0.0219
  C  C4069  1  0.192470  0.463740  0.212750  1.0  0.6134
  C  C4070  1  0.183430  0.436040  0.206710  1.0  0.0882
  C  C4071  1  0.189210  0.428450  0.184670  1.0  -0.1362
  C  C4072  1  0.185080  0.399050  0.177490  1.0  -0.0602
  C  C4073  1  0.194860  0.387610  0.150040  1.0  0.0565
  C  C4074  1  0.171790  0.367950  0.149700  1.0  -0.0706
  C  C4075  1  0.151430  0.367040  0.168430  1.0  -0.149
  C  C4076  1  0.161460  0.390570  0.185190  1.0  -0.1246
  C  C4077  1  0.143960  0.398960  0.210560  1.0  -0.0046
  C  C4078  1  0.218110  0.377320  0.158660  1.0  -0.4033
  C  C4079  1  0.189380  0.408640  0.127850  1.0  -0.3381
  C  C4080  1  0.158790  0.426130  0.220080  1.0  -0.0219
  C  C4081  1  0.692470  0.036260  0.787250  1.0  0.6157
  C  C4082  1  0.683430  0.063960  0.793290  1.0  0.0887
  C  C4083  1  0.689210  0.071550  0.815330  1.0  -0.1358
  C  C4084  1  0.685080  0.100950  0.822510  1.0  -0.0591
  C  C4085  1  0.694860  0.112390  0.849960  1.0  0.0562
  C  C4086  1  0.671790  0.132050  0.850300  1.0  -0.0699
  C  C4087  1  0.651430  0.132960  0.831570  1.0  -0.1498
  C  C4088  1  0.661460  0.109430  0.814810  1.0  -0.1244
  C  C4089  1  0.643960  0.101040  0.789440  1.0  -0.0068
  C  C4090  1  0.718110  0.122680  0.841340  1.0  -0.4031
  C  C4091  1  0.689380  0.091360  0.872150  1.0  -0.3399
  C  C4092  1  0.658790  0.073870  0.779920  1.0  -0.022
  C  C4093  1  0.692470  0.536260  0.287250  1.0  0.6157
  C  C4094  1  0.683430  0.563960  0.293290  1.0  0.0887
  C  C4095  1  0.689210  0.571550  0.315330  1.0  -0.1358
  C  C4096  1  0.685080  0.600950  0.322510  1.0  -0.0591
  C  C4097  1  0.694860  0.612390  0.349960  1.0  0.0562
  C  C4098  1  0.671790  0.632050  0.350300  1.0  -0.0699
  C  C4099  1  0.651430  0.632960  0.331570  1.0  -0.1498
  C  C4100  1  0.661460  0.609430  0.314810  1.0  -0.1244
  C  C4101  1  0.643960  0.601040  0.289440  1.0  -0.0068
  C  C4102  1  0.718110  0.622680  0.341340  1.0  -0.4031
  C  C4103  1  0.689380  0.591360  0.372150  1.0  -0.3399
  C  C4104  1  0.658790  0.573870  0.279920  1.0  -0.022
  C  C4105  1  0.192470  0.036260  0.287250  1.0  0.6157
  C  C4106  1  0.183430  0.063960  0.293290  1.0  0.0887
  C  C4107  1  0.189210  0.071550  0.315330  1.0  -0.1358
  C  C4108  1  0.185080  0.100950  0.322510  1.0  -0.0591
  C  C4109  1  0.194860  0.112390  0.349960  1.0  0.0562
  C  C4110  1  0.171790  0.132050  0.350300  1.0  -0.0699
  C  C4111  1  0.151430  0.132960  0.331570  1.0  -0.1498
  C  C4112  1  0.161460  0.109430  0.314810  1.0  -0.1244
  C  C4113  1  0.143960  0.101040  0.289440  1.0  -0.0068
  C  C4114  1  0.218110  0.122680  0.341340  1.0  -0.4031
  C  C4115  1  0.189380  0.091360  0.372150  1.0  -0.3399
  C  C4116  1  0.158790  0.073870  0.279920  1.0  -0.022
  C  C4117  1  0.192470  0.536260  0.787250  1.0  0.6157
  C  C4118  1  0.183430  0.563960  0.793290  1.0  0.0887
  C  C4119  1  0.189210  0.571550  0.815330  1.0  -0.1358
  C  C4120  1  0.185080  0.600950  0.822510  1.0  -0.0591
  C  C4121  1  0.194860  0.612390  0.849960  1.0  0.0562
  C  C4122  1  0.171790  0.632050  0.850300  1.0  -0.0699
  C  C4123  1  0.151430  0.632960  0.831570  1.0  -0.1498
  C  C4124  1  0.161460  0.609430  0.814810  1.0  -0.1244
  C  C4125  1  0.143960  0.601040  0.789440  1.0  -0.0068
  C  C4126  1  0.218110  0.622680  0.841340  1.0  -0.4031
  C  C4127  1  0.189380  0.591360  0.872150  1.0  -0.3399
  C  C4128  1  0.158790  0.573870  0.779920  1.0  -0.022
  O  O4129  1  0.264280  0.529960  0.183840  1.0  -0.701
  O  O4130  1  0.297600  0.528400  0.209900  1.0  -0.6612
  O  O4131  1  0.264280  0.029960  0.683840  1.0  -0.701
  O  O4132  1  0.297600  0.028400  0.709900  1.0  -0.6612
  O  O4133  1  0.764280  0.529960  0.683840  1.0  -0.701
  O  O4134  1  0.797600  0.528400  0.709900  1.0  -0.6612
  O  O4135  1  0.764280  0.029960  0.183840  1.0  -0.701
  O  O4136  1  0.797600  0.028400  0.209900  1.0  -0.6612
  O  O4137  1  0.735720  0.470040  0.183840  1.0  -0.7003
  O  O4138  1  0.702400  0.471600  0.209900  1.0  -0.6623
  O  O4139  1  0.735720  0.970040  0.683840  1.0  -0.7003
  O  O4140  1  0.702400  0.971600  0.709900  1.0  -0.6623
  O  O4141  1  0.235720  0.470040  0.683840  1.0  -0.7003
  O  O4142  1  0.202400  0.471600  0.709900  1.0  -0.6623
  O  O4143  1  0.235720  0.970040  0.183840  1.0  -0.7003
  O  O4144  1  0.202400  0.971600  0.209900  1.0  -0.6623
  O  O4145  1  0.735720  0.529960  0.816160  1.0  -0.7003
  O  O4146  1  0.702400  0.528400  0.790100  1.0  -0.6593
  O  O4147  1  0.735720  0.029960  0.316160  1.0  -0.7003
  O  O4148  1  0.702400  0.028400  0.290100  1.0  -0.6593
  O  O4149  1  0.235720  0.529960  0.316160  1.0  -0.7003
  O  O4150  1  0.202400  0.528400  0.290100  1.0  -0.6593
  O  O4151  1  0.235720  0.029960  0.816160  1.0  -0.7003
  O  O4152  1  0.202400  0.028400  0.790100  1.0  -0.6593
  O  O4153  1  0.264280  0.470040  0.816160  1.0  -0.7005
  O  O4154  1  0.297600  0.471600  0.790100  1.0  -0.6601
  O  O4155  1  0.264280  0.970040  0.316160  1.0  -0.7005
  O  O4156  1  0.297600  0.971600  0.290100  1.0  -0.6601
  O  O4157  1  0.764280  0.470040  0.316160  1.0  -0.7005
  O  O4158  1  0.797600  0.471600  0.290100  1.0  -0.6601
  O  O4159  1  0.764280  0.970040  0.816160  1.0  -0.7005
  O  O4160  1  0.797600  0.971600  0.790100  1.0  -0.6601
  O  O4161  1  0.183840  0.264280  0.529960  1.0  -0.7006
  O  O4162  1  0.209900  0.297600  0.528400  1.0  -0.6569
  O  O4163  1  0.183840  0.764280  0.029960  1.0  -0.7006
  O  O4164  1  0.209900  0.797600  0.028400  1.0  -0.6569
  O  O4165  1  0.683840  0.264280  0.029960  1.0  -0.7006
  O  O4166  1  0.709900  0.297600  0.028400  1.0  -0.6569
  O  O4167  1  0.683840  0.764280  0.529960  1.0  -0.7006
  O  O4168  1  0.709900  0.797600  0.528400  1.0  -0.6569
  O  O4169  1  0.183840  0.735720  0.470040  1.0  -0.7015
  O  O4170  1  0.209900  0.702400  0.471600  1.0  -0.6574
  O  O4171  1  0.183840  0.235720  0.970040  1.0  -0.7015
  O  O4172  1  0.209900  0.202400  0.971600  1.0  -0.6574
  O  O4173  1  0.683840  0.735720  0.970040  1.0  -0.7015
  O  O4174  1  0.709900  0.702400  0.971600  1.0  -0.6574
  O  O4175  1  0.683840  0.235720  0.470040  1.0  -0.7015
  O  O4176  1  0.709900  0.202400  0.471600  1.0  -0.6574
  O  O4177  1  0.816160  0.735720  0.529960  1.0  -0.7023
  O  O4178  1  0.790100  0.702400  0.528400  1.0  -0.6578
  O  O4179  1  0.816160  0.235720  0.029960  1.0  -0.7023
  O  O4180  1  0.790100  0.202400  0.028400  1.0  -0.6578
  O  O4181  1  0.316160  0.735720  0.029960  1.0  -0.7023
  O  O4182  1  0.290100  0.702400  0.028400  1.0  -0.6578
  O  O4183  1  0.316160  0.235720  0.529960  1.0  -0.7023
  O  O4184  1  0.290100  0.202400  0.528400  1.0  -0.6578
  O  O4185  1  0.816160  0.264280  0.470040  1.0  -0.6998
  O  O4186  1  0.790100  0.297600  0.471600  1.0  -0.6574
  O  O4187  1  0.816160  0.764280  0.970040  1.0  -0.6998
  O  O4188  1  0.790100  0.797600  0.971600  1.0  -0.6574
  O  O4189  1  0.316160  0.264280  0.970040  1.0  -0.6998
  O  O4190  1  0.290100  0.297600  0.971600  1.0  -0.6574
  O  O4191  1  0.316160  0.764280  0.470040  1.0  -0.6998
  O  O4192  1  0.290100  0.797600  0.471600  1.0  -0.6574
  O  O4193  1  0.529960  0.183840  0.264280  1.0  -0.7018
  O  O4194  1  0.528400  0.209900  0.297600  1.0  -0.6623
  O  O4195  1  0.529960  0.683840  0.764280  1.0  -0.7018
  O  O4196  1  0.528400  0.709900  0.797600  1.0  -0.6623
  O  O4197  1  0.029960  0.183840  0.764280  1.0  -0.7018
  O  O4198  1  0.028400  0.209900  0.797600  1.0  -0.6623
  O  O4199  1  0.029960  0.683840  0.264280  1.0  -0.7018
  O  O4200  1  0.028400  0.709900  0.297600  1.0  -0.6623
  O  O4201  1  0.470040  0.183840  0.735720  1.0  -0.702
  O  O4202  1  0.471600  0.209900  0.702400  1.0  -0.6623
  O  O4203  1  0.470040  0.683840  0.235720  1.0  -0.702
  O  O4204  1  0.471600  0.709900  0.202400  1.0  -0.6623
  O  O4205  1  0.970040  0.183840  0.235720  1.0  -0.702
  O  O4206  1  0.971600  0.209900  0.202400  1.0  -0.6623
  O  O4207  1  0.970040  0.683840  0.735720  1.0  -0.702
  O  O4208  1  0.971600  0.709900  0.702400  1.0  -0.6623
  O  O4209  1  0.529960  0.816160  0.735720  1.0  -0.7023
  O  O4210  1  0.528400  0.790100  0.702400  1.0  -0.6579
  O  O4211  1  0.529960  0.316160  0.235720  1.0  -0.7023
  O  O4212  1  0.528400  0.290100  0.202400  1.0  -0.6579
  O  O4213  1  0.029960  0.816160  0.235720  1.0  -0.7023
  O  O4214  1  0.028400  0.790100  0.202400  1.0  -0.6579
  O  O4215  1  0.029960  0.316160  0.735720  1.0  -0.7023
  O  O4216  1  0.028400  0.290100  0.702400  1.0  -0.6579
  O  O4217  1  0.470040  0.816160  0.264280  1.0  -0.7021
  O  O4218  1  0.471600  0.790100  0.297600  1.0  -0.6584
  O  O4219  1  0.470040  0.316160  0.764280  1.0  -0.7021
  O  O4220  1  0.471600  0.290100  0.797600  1.0  -0.6584
  O  O4221  1  0.970040  0.816160  0.764280  1.0  -0.7021
  O  O4222  1  0.971600  0.790100  0.797600  1.0  -0.6584
  O  O4223  1  0.970040  0.316160  0.264280  1.0  -0.7021
  O  O4224  1  0.971600  0.290100  0.297600  1.0  -0.6584
  O  O4225  1  0.029960  0.764280  0.316160  1.0  -0.7001
  O  O4226  1  0.028400  0.797600  0.290100  1.0  -0.6584
  O  O4227  1  0.029960  0.264280  0.816160  1.0  -0.7001
  O  O4228  1  0.028400  0.297600  0.790100  1.0  -0.6584
  O  O4229  1  0.529960  0.764280  0.816160  1.0  -0.7001
  O  O4230  1  0.528400  0.797600  0.790100  1.0  -0.6584
  O  O4231  1  0.529960  0.264280  0.316160  1.0  -0.7001
  O  O4232  1  0.528400  0.297600  0.290100  1.0  -0.6584
  O  O4233  1  0.970040  0.235720  0.316160  1.0  -0.7019
  O  O4234  1  0.971600  0.202400  0.290100  1.0  -0.6598
  O  O4235  1  0.970040  0.735720  0.816160  1.0  -0.7019
  O  O4236  1  0.971600  0.702400  0.790100  1.0  -0.6598
  O  O4237  1  0.470040  0.235720  0.816160  1.0  -0.7019
  O  O4238  1  0.471600  0.202400  0.790100  1.0  -0.6598
  O  O4239  1  0.470040  0.735720  0.316160  1.0  -0.7019
  O  O4240  1  0.471600  0.702400  0.290100  1.0  -0.6598
  O  O4241  1  0.029960  0.235720  0.683840  1.0  -0.7027
  O  O4242  1  0.028400  0.202400  0.709900  1.0  -0.6614
  O  O4243  1  0.029960  0.735720  0.183840  1.0  -0.7027
  O  O4244  1  0.028400  0.702400  0.209900  1.0  -0.6614
  O  O4245  1  0.529960  0.235720  0.183840  1.0  -0.7027
  O  O4246  1  0.528400  0.202400  0.209900  1.0  -0.6614
  O  O4247  1  0.529960  0.735720  0.683840  1.0  -0.7027
  O  O4248  1  0.528400  0.702400  0.709900  1.0  -0.6614
  O  O4249  1  0.970040  0.764280  0.683840  1.0  -0.7008
  O  O4250  1  0.971600  0.797600  0.709900  1.0  -0.6614
  O  O4251  1  0.970040  0.264280  0.183840  1.0  -0.7008
  O  O4252  1  0.971600  0.297600  0.209900  1.0  -0.6614
  O  O4253  1  0.470040  0.764280  0.183840  1.0  -0.7008
  O  O4254  1  0.471600  0.797600  0.209900  1.0  -0.6614
  O  O4255  1  0.470040  0.264280  0.683840  1.0  -0.7008
  O  O4256  1  0.471600  0.297600  0.709900  1.0  -0.6614
  O  O4257  1  0.764280  0.683840  0.970040  1.0  -0.6997
  O  O4258  1  0.797600  0.709900  0.971600  1.0  -0.6628
  O  O4259  1  0.764280  0.183840  0.470040  1.0  -0.6997
  O  O4260  1  0.797600  0.209900  0.471600  1.0  -0.6628
  O  O4261  1  0.264280  0.683840  0.470040  1.0  -0.6997
  O  O4262  1  0.297600  0.709900  0.471600  1.0  -0.6628
  O  O4263  1  0.264280  0.183840  0.970040  1.0  -0.6997
  O  O4264  1  0.297600  0.209900  0.971600  1.0  -0.6628
  O  O4265  1  0.235720  0.683840  0.029960  1.0  -0.7004
  O  O4266  1  0.202400  0.709900  0.028400  1.0  -0.662
  O  O4267  1  0.235720  0.183840  0.529960  1.0  -0.7004
  O  O4268  1  0.202400  0.209900  0.528400  1.0  -0.662
  O  O4269  1  0.735720  0.683840  0.529960  1.0  -0.7004
  O  O4270  1  0.702400  0.709900  0.528400  1.0  -0.662
  O  O4271  1  0.735720  0.183840  0.029960  1.0  -0.7004
  O  O4272  1  0.702400  0.209900  0.028400  1.0  -0.662
  O  O4273  1  0.235720  0.316160  0.970040  1.0  -0.6996
  O  O4274  1  0.202400  0.290100  0.971600  1.0  -0.6575
  O  O4275  1  0.235720  0.816160  0.470040  1.0  -0.6996
  O  O4276  1  0.202400  0.790100  0.471600  1.0  -0.6575
  O  O4277  1  0.735720  0.316160  0.470040  1.0  -0.6996
  O  O4278  1  0.702400  0.290100  0.471600  1.0  -0.6575
  O  O4279  1  0.735720  0.816160  0.970040  1.0  -0.6996
  O  O4280  1  0.702400  0.790100  0.971600  1.0  -0.6575
  O  O4281  1  0.764280  0.316160  0.029960  1.0  -0.7011
  O  O4282  1  0.797600  0.290100  0.028400  1.0  -0.6585
  O  O4283  1  0.764280  0.816160  0.529960  1.0  -0.7011
  O  O4284  1  0.797600  0.790100  0.528400  1.0  -0.6585
  O  O4285  1  0.264280  0.316160  0.529960  1.0  -0.7011
  O  O4286  1  0.297600  0.290100  0.528400  1.0  -0.6585
  O  O4287  1  0.264280  0.816160  0.029960  1.0  -0.7011
  O  O4288  1  0.297600  0.790100  0.028400  1.0  -0.6585
  O  O4289  1  0.683840  0.029960  0.235720  1.0  -0.7024
  O  O4290  1  0.709900  0.028400  0.202400  1.0  -0.6575
  O  O4291  1  0.683840  0.529960  0.735720  1.0  -0.7024
  O  O4292  1  0.709900  0.528400  0.702400  1.0  -0.6575
  O  O4293  1  0.183840  0.029960  0.735720  1.0  -0.7024
  O  O4294  1  0.209900  0.028400  0.702400  1.0  -0.6575
  O  O4295  1  0.183840  0.529960  0.235720  1.0  -0.7024
  O  O4296  1  0.209900  0.528400  0.202400  1.0  -0.6575
  O  O4297  1  0.683840  0.970040  0.764280  1.0  -0.7026
  O  O4298  1  0.709900  0.971600  0.797600  1.0  -0.659
  O  O4299  1  0.683840  0.470040  0.264280  1.0  -0.7026
  O  O4300  1  0.709900  0.471600  0.297600  1.0  -0.659
  O  O4301  1  0.183840  0.970040  0.264280  1.0  -0.7026
  O  O4302  1  0.209900  0.971600  0.297600  1.0  -0.659
  O  O4303  1  0.183840  0.470040  0.764280  1.0  -0.7026
  O  O4304  1  0.209900  0.471600  0.797600  1.0  -0.659
  O  O4305  1  0.316160  0.029960  0.764280  1.0  -0.7028
  O  O4306  1  0.290100  0.028400  0.797600  1.0  -0.6578
  O  O4307  1  0.316160  0.529960  0.264280  1.0  -0.7028
  O  O4308  1  0.290100  0.528400  0.297600  1.0  -0.6578
  O  O4309  1  0.816160  0.029960  0.264280  1.0  -0.7028
  O  O4310  1  0.790100  0.028400  0.297600  1.0  -0.6578
  O  O4311  1  0.816160  0.529960  0.764280  1.0  -0.7028
  O  O4312  1  0.790100  0.528400  0.797600  1.0  -0.6578
  O  O4313  1  0.316160  0.970040  0.235720  1.0  -0.7026
  O  O4314  1  0.290100  0.971600  0.202400  1.0  -0.6584
  O  O4315  1  0.316160  0.470040  0.735720  1.0  -0.7026
  O  O4316  1  0.290100  0.471600  0.702400  1.0  -0.6584
  O  O4317  1  0.816160  0.970040  0.735720  1.0  -0.7026
  O  O4318  1  0.790100  0.971600  0.702400  1.0  -0.6584
  O  O4319  1  0.816160  0.470040  0.235720  1.0  -0.7026
  O  O4320  1  0.790100  0.471600  0.202400  1.0  -0.6584
  O  O4321  1  0.735720  0.470040  0.816160  1.0  -0.7001
  O  O4322  1  0.702400  0.471600  0.790100  1.0  -0.6601
  O  O4323  1  0.735720  0.970040  0.316160  1.0  -0.7001
  O  O4324  1  0.702400  0.971600  0.290100  1.0  -0.6601
  O  O4325  1  0.235720  0.470040  0.316160  1.0  -0.7001
  O  O4326  1  0.202400  0.471600  0.290100  1.0  -0.6601
  O  O4327  1  0.235720  0.970040  0.816160  1.0  -0.7001
  O  O4328  1  0.202400  0.971600  0.790100  1.0  -0.6601
  O  O4329  1  0.264280  0.529960  0.816160  1.0  -0.7001
  O  O4330  1  0.297600  0.528400  0.790100  1.0  -0.6593
  O  O4331  1  0.264280  0.029960  0.316160  1.0  -0.7001
  O  O4332  1  0.297600  0.028400  0.290100  1.0  -0.6593
  O  O4333  1  0.764280  0.529960  0.316160  1.0  -0.7001
  O  O4334  1  0.797600  0.528400  0.290100  1.0  -0.6593
  O  O4335  1  0.764280  0.029960  0.816160  1.0  -0.7001
  O  O4336  1  0.797600  0.028400  0.790100  1.0  -0.6593
  O  O4337  1  0.264280  0.470040  0.183840  1.0  -0.7008
  O  O4338  1  0.297600  0.471600  0.209900  1.0  -0.662
  O  O4339  1  0.264280  0.970040  0.683840  1.0  -0.7008
  O  O4340  1  0.297600  0.971600  0.709900  1.0  -0.662
  O  O4341  1  0.764280  0.470040  0.683840  1.0  -0.7008
  O  O4342  1  0.797600  0.471600  0.709900  1.0  -0.662
  O  O4343  1  0.764280  0.970040  0.183840  1.0  -0.7008
  O  O4344  1  0.797600  0.971600  0.209900  1.0  -0.662
  O  O4345  1  0.735720  0.529960  0.183840  1.0  -0.7005
  O  O4346  1  0.702400  0.528400  0.209900  1.0  -0.6614
  O  O4347  1  0.735720  0.029960  0.683840  1.0  -0.7005
  O  O4348  1  0.702400  0.028400  0.709900  1.0  -0.6614
  O  O4349  1  0.235720  0.529960  0.683840  1.0  -0.7005
  O  O4350  1  0.202400  0.528400  0.709900  1.0  -0.6614
  O  O4351  1  0.235720  0.029960  0.183840  1.0  -0.7005
  O  O4352  1  0.202400  0.028400  0.209900  1.0  -0.6614
  O  O4353  1  0.816160  0.735720  0.470040  1.0  -0.7012
  O  O4354  1  0.790100  0.702400  0.471600  1.0  -0.6574
  O  O4355  1  0.816160  0.235720  0.970040  1.0  -0.7012
  O  O4356  1  0.790100  0.202400  0.971600  1.0  -0.6574
  O  O4357  1  0.316160  0.735720  0.970040  1.0  -0.7012
  O  O4358  1  0.290100  0.702400  0.971600  1.0  -0.6574
  O  O4359  1  0.316160  0.235720  0.470040  1.0  -0.7012
  O  O4360  1  0.290100  0.202400  0.471600  1.0  -0.6574
  O  O4361  1  0.816160  0.264280  0.529960  1.0  -0.701
  O  O4362  1  0.790100  0.297600  0.528400  1.0  -0.6574
  O  O4363  1  0.816160  0.764280  0.029960  1.0  -0.701
  O  O4364  1  0.790100  0.797600  0.028400  1.0  -0.6574
  O  O4365  1  0.316160  0.264280  0.029960  1.0  -0.701
  O  O4366  1  0.290100  0.297600  0.028400  1.0  -0.6574
  O  O4367  1  0.316160  0.764280  0.529960  1.0  -0.701
  O  O4368  1  0.290100  0.797600  0.528400  1.0  -0.6574
  O  O4369  1  0.183840  0.264280  0.470040  1.0  -0.6994
  O  O4370  1  0.209900  0.297600  0.471600  1.0  -0.6574
  O  O4371  1  0.183840  0.764280  0.970040  1.0  -0.6994
  O  O4372  1  0.209900  0.797600  0.971600  1.0  -0.6574
  O  O4373  1  0.683840  0.264280  0.970040  1.0  -0.6994
  O  O4374  1  0.709900  0.297600  0.971600  1.0  -0.6574
  O  O4375  1  0.683840  0.764280  0.470040  1.0  -0.6994
  O  O4376  1  0.709900  0.797600  0.471600  1.0  -0.6574
  O  O4377  1  0.183840  0.735720  0.529960  1.0  -0.7021
  O  O4378  1  0.209900  0.702400  0.528400  1.0  -0.6575
  O  O4379  1  0.183840  0.235720  0.029960  1.0  -0.7021
  O  O4380  1  0.209900  0.202400  0.028400  1.0  -0.6575
  O  O4381  1  0.683840  0.735720  0.029960  1.0  -0.7021
  O  O4382  1  0.709900  0.702400  0.028400  1.0  -0.6575
  O  O4383  1  0.683840  0.235720  0.529960  1.0  -0.7021
  O  O4384  1  0.709900  0.202400  0.528400  1.0  -0.6575
  O  O4385  1  0.470040  0.816160  0.735720  1.0  -0.7018
  O  O4386  1  0.471600  0.790100  0.702400  1.0  -0.6584
  O  O4387  1  0.470040  0.316160  0.235720  1.0  -0.7018
  O  O4388  1  0.471600  0.290100  0.202400  1.0  -0.6584
  O  O4389  1  0.970040  0.816160  0.235720  1.0  -0.7018
  O  O4390  1  0.971600  0.790100  0.202400  1.0  -0.6584
  O  O4391  1  0.970040  0.316160  0.735720  1.0  -0.7018
  O  O4392  1  0.971600  0.290100  0.702400  1.0  -0.6584
  O  O4393  1  0.529960  0.816160  0.264280  1.0  -0.7017
  O  O4394  1  0.528400  0.790100  0.297600  1.0  -0.658
  O  O4395  1  0.529960  0.316160  0.764280  1.0  -0.7017
  O  O4396  1  0.528400  0.290100  0.797600  1.0  -0.658
  O  O4397  1  0.029960  0.816160  0.764280  1.0  -0.7017
  O  O4398  1  0.028400  0.790100  0.797600  1.0  -0.658
  O  O4399  1  0.029960  0.316160  0.264280  1.0  -0.7017
  O  O4400  1  0.028400  0.290100  0.297600  1.0  -0.658
  O  O4401  1  0.470040  0.183840  0.264280  1.0  -0.7021
  O  O4402  1  0.471600  0.209900  0.297600  1.0  -0.663
  O  O4403  1  0.470040  0.683840  0.764280  1.0  -0.7021
  O  O4404  1  0.471600  0.709900  0.797600  1.0  -0.663
  O  O4405  1  0.970040  0.183840  0.764280  1.0  -0.7021
  O  O4406  1  0.971600  0.209900  0.797600  1.0  -0.663
  O  O4407  1  0.970040  0.683840  0.264280  1.0  -0.7021
  O  O4408  1  0.971600  0.709900  0.297600  1.0  -0.663
  O  O4409  1  0.529960  0.183840  0.735720  1.0  -0.7015
  O  O4410  1  0.528400  0.209900  0.702400  1.0  -0.6618
  O  O4411  1  0.529960  0.683840  0.235720  1.0  -0.7015
  O  O4412  1  0.528400  0.709900  0.202400  1.0  -0.6618
  O  O4413  1  0.029960  0.183840  0.235720  1.0  -0.7015
  O  O4414  1  0.028400  0.209900  0.202400  1.0  -0.6618
  O  O4415  1  0.029960  0.683840  0.735720  1.0  -0.7015
  O  O4416  1  0.028400  0.709900  0.702400  1.0  -0.6618
  O  O4417  1  0.970040  0.235720  0.683840  1.0  -0.702
  O  O4418  1  0.971600  0.202400  0.709900  1.0  -0.6619
  O  O4419  1  0.970040  0.735720  0.183840  1.0  -0.702
  O  O4420  1  0.971600  0.702400  0.209900  1.0  -0.6619
  O  O4421  1  0.470040  0.235720  0.183840  1.0  -0.702
  O  O4422  1  0.471600  0.202400  0.209900  1.0  -0.6619
  O  O4423  1  0.470040  0.735720  0.683840  1.0  -0.702
  O  O4424  1  0.471600  0.702400  0.709900  1.0  -0.6619
  O  O4425  1  0.029960  0.764280  0.683840  1.0  -0.7006
  O  O4426  1  0.028400  0.797600  0.709900  1.0  -0.6613
  O  O4427  1  0.029960  0.264280  0.183840  1.0  -0.7006
  O  O4428  1  0.028400  0.297600  0.209900  1.0  -0.6613
  O  O4429  1  0.529960  0.764280  0.183840  1.0  -0.7006
  O  O4430  1  0.528400  0.797600  0.209900  1.0  -0.6613
  O  O4431  1  0.529960  0.264280  0.683840  1.0  -0.7006
  O  O4432  1  0.528400  0.297600  0.709900  1.0  -0.6613
  O  O4433  1  0.970040  0.764280  0.316160  1.0  -0.7003
  O  O4434  1  0.971600  0.797600  0.290100  1.0  -0.6589
  O  O4435  1  0.970040  0.264280  0.816160  1.0  -0.7003
  O  O4436  1  0.971600  0.297600  0.790100  1.0  -0.6589
  O  O4437  1  0.470040  0.764280  0.816160  1.0  -0.7003
  O  O4438  1  0.471600  0.797600  0.790100  1.0  -0.6589
  O  O4439  1  0.470040  0.264280  0.316160  1.0  -0.7003
  O  O4440  1  0.471600  0.297600  0.290100  1.0  -0.6589
  O  O4441  1  0.029960  0.235720  0.316160  1.0  -0.7025
  O  O4442  1  0.028400  0.202400  0.290100  1.0  -0.6589
  O  O4443  1  0.029960  0.735720  0.816160  1.0  -0.7025
  O  O4444  1  0.028400  0.702400  0.790100  1.0  -0.6589
  O  O4445  1  0.529960  0.235720  0.816160  1.0  -0.7025
  O  O4446  1  0.528400  0.202400  0.790100  1.0  -0.6589
  O  O4447  1  0.529960  0.735720  0.316160  1.0  -0.7025
  O  O4448  1  0.528400  0.702400  0.290100  1.0  -0.6589
  O  O4449  1  0.235720  0.316160  0.029960  1.0  -0.7005
  O  O4450  1  0.202400  0.290100  0.028400  1.0  -0.6587
  O  O4451  1  0.235720  0.816160  0.529960  1.0  -0.7005
  O  O4452  1  0.202400  0.790100  0.528400  1.0  -0.6587
  O  O4453  1  0.735720  0.316160  0.529960  1.0  -0.7005
  O  O4454  1  0.702400  0.290100  0.528400  1.0  -0.6587
  O  O4455  1  0.735720  0.816160  0.029960  1.0  -0.7005
  O  O4456  1  0.702400  0.790100  0.028400  1.0  -0.6587
  O  O4457  1  0.764280  0.316160  0.970040  1.0  -0.6999
  O  O4458  1  0.797600  0.290100  0.971600  1.0  -0.6572
  O  O4459  1  0.764280  0.816160  0.470040  1.0  -0.6999
  O  O4460  1  0.797600  0.790100  0.471600  1.0  -0.6572
  O  O4461  1  0.264280  0.316160  0.470040  1.0  -0.6999
  O  O4462  1  0.297600  0.290100  0.471600  1.0  -0.6572
  O  O4463  1  0.264280  0.816160  0.970040  1.0  -0.6999
  O  O4464  1  0.297600  0.790100  0.971600  1.0  -0.6572
  O  O4465  1  0.764280  0.683840  0.029960  1.0  -0.701
  O  O4466  1  0.797600  0.709900  0.028400  1.0  -0.6622
  O  O4467  1  0.764280  0.183840  0.529960  1.0  -0.701
  O  O4468  1  0.797600  0.209900  0.528400  1.0  -0.6622
  O  O4469  1  0.264280  0.683840  0.529960  1.0  -0.701
  O  O4470  1  0.297600  0.709900  0.528400  1.0  -0.6622
  O  O4471  1  0.264280  0.183840  0.029960  1.0  -0.701
  O  O4472  1  0.297600  0.209900  0.028400  1.0  -0.6622
  O  O4473  1  0.235720  0.683840  0.970040  1.0  -0.6995
  O  O4474  1  0.202400  0.709900  0.971600  1.0  -0.6625
  O  O4475  1  0.235720  0.183840  0.470040  1.0  -0.6995
  O  O4476  1  0.202400  0.209900  0.471600  1.0  -0.6625
  O  O4477  1  0.735720  0.683840  0.470040  1.0  -0.6995
  O  O4478  1  0.702400  0.709900  0.471600  1.0  -0.6625
  O  O4479  1  0.735720  0.183840  0.970040  1.0  -0.6995
  O  O4480  1  0.702400  0.209900  0.971600  1.0  -0.6625
  O  O4481  1  0.316160  0.970040  0.764280  1.0  -0.7028
  O  O4482  1  0.290100  0.971600  0.797600  1.0  -0.6588
  O  O4483  1  0.316160  0.470040  0.264280  1.0  -0.7028
  O  O4484  1  0.290100  0.471600  0.297600  1.0  -0.6588
  O  O4485  1  0.816160  0.970040  0.264280  1.0  -0.7028
  O  O4486  1  0.790100  0.971600  0.297600  1.0  -0.6588
  O  O4487  1  0.816160  0.470040  0.764280  1.0  -0.7028
  O  O4488  1  0.790100  0.471600  0.797600  1.0  -0.6588
  O  O4489  1  0.316160  0.029960  0.235720  1.0  -0.7025
  O  O4490  1  0.290100  0.028400  0.202400  1.0  -0.6575
  O  O4491  1  0.316160  0.529960  0.735720  1.0  -0.7025
  O  O4492  1  0.290100  0.528400  0.702400  1.0  -0.6575
  O  O4493  1  0.816160  0.029960  0.735720  1.0  -0.7025
  O  O4494  1  0.790100  0.028400  0.702400  1.0  -0.6575
  O  O4495  1  0.816160  0.529960  0.235720  1.0  -0.7025
  O  O4496  1  0.790100  0.528400  0.202400  1.0  -0.6575
  O  O4497  1  0.683840  0.970040  0.235720  1.0  -0.7028
  O  O4498  1  0.709900  0.971600  0.202400  1.0  -0.6584
  O  O4499  1  0.683840  0.470040  0.735720  1.0  -0.7028
  O  O4500  1  0.709900  0.471600  0.702400  1.0  -0.6584
  O  O4501  1  0.183840  0.970040  0.735720  1.0  -0.7028
  O  O4502  1  0.209900  0.971600  0.702400  1.0  -0.6584
  O  O4503  1  0.183840  0.470040  0.235720  1.0  -0.7028
  O  O4504  1  0.209900  0.471600  0.202400  1.0  -0.6584
  O  O4505  1  0.683840  0.029960  0.764280  1.0  -0.7021
  O  O4506  1  0.709900  0.028400  0.797600  1.0  -0.658
  O  O4507  1  0.683840  0.529960  0.264280  1.0  -0.7021
  O  O4508  1  0.709900  0.528400  0.297600  1.0  -0.658
  O  O4509  1  0.183840  0.029960  0.264280  1.0  -0.7021
  O  O4510  1  0.209900  0.028400  0.297600  1.0  -0.658
  O  O4511  1  0.183840  0.529960  0.764280  1.0  -0.7021
  O  O4512  1  0.209900  0.528400  0.797600  1.0  -0.658
