# generated using pymatgen
data_Yb4H37C57N3O16
_symmetry_space_group_name_H-M   'P 1'
_cell_length_a   29.31100000
_cell_length_b   29.31100000
_cell_length_c   29.31100000
_cell_angle_alpha   90.00000000
_cell_angle_beta   90.00000000
_cell_angle_gamma   90.00000000
_symmetry_Int_Tables_number   1
_chemical_formula_structural   Yb4H37C57N3O16
_chemical_formula_sum   'Yb32 H296 C456 N24 O128'
_cell_volume   25182.09780723
_cell_formula_units_Z   8
loop_
 _symmetry_equiv_pos_site_id
 _symmetry_equiv_pos_as_xyz
  1  'x, y, z'
loop_
 _atom_site_type_symbol
 _atom_site_label
 _atom_site_symmetry_multiplicity
 _atom_site_fract_x
 _atom_site_fract_y
 _atom_site_fract_z
 _atom_site_occupancy
 _atom_site_charge
  Yb  Yb1  1  0.144330  0.245370  0.182930  1.0  1.4944
  Yb  Yb2  1  0.355670  0.754630  0.682930  1.0  1.496
  Yb  Yb3  1  0.855670  0.745370  0.317070  1.0  1.4972
  Yb  Yb4  1  0.644330  0.254630  0.817070  1.0  1.4956
  Yb  Yb5  1  0.182930  0.144330  0.245370  1.0  1.4948
  Yb  Yb6  1  0.682930  0.355670  0.754630  1.0  1.4958
  Yb  Yb7  1  0.317070  0.855670  0.745370  1.0  1.495
  Yb  Yb8  1  0.817070  0.644330  0.254630  1.0  1.4942
  Yb  Yb9  1  0.245370  0.182930  0.144330  1.0  1.4912
  Yb  Yb10  1  0.754630  0.682930  0.355670  1.0  1.4911
  Yb  Yb11  1  0.745370  0.317070  0.855670  1.0  1.4925
  Yb  Yb12  1  0.254630  0.817070  0.644330  1.0  1.492
  Yb  Yb13  1  0.749540  0.250460  0.750460  1.0  1.4271
  Yb  Yb14  1  0.750460  0.749540  0.250460  1.0  1.4242
  Yb  Yb15  1  0.250460  0.750460  0.749540  1.0  1.4289
  Yb  Yb16  1  0.249540  0.249540  0.249540  1.0  1.4243
  Yb  Yb17  1  0.855670  0.754630  0.817070  1.0  1.4968
  Yb  Yb18  1  0.644330  0.245370  0.317070  1.0  1.4949
  Yb  Yb19  1  0.144330  0.254630  0.682930  1.0  1.4943
  Yb  Yb20  1  0.355670  0.745370  0.182930  1.0  1.497
  Yb  Yb21  1  0.817070  0.855670  0.754630  1.0  1.4952
  Yb  Yb22  1  0.317070  0.644330  0.245370  1.0  1.4939
  Yb  Yb23  1  0.682930  0.144330  0.254630  1.0  1.4948
  Yb  Yb24  1  0.182930  0.355670  0.745370  1.0  1.4956
  Yb  Yb25  1  0.754630  0.817070  0.855670  1.0  1.4907
  Yb  Yb26  1  0.245370  0.317070  0.644330  1.0  1.4915
  Yb  Yb27  1  0.254630  0.682930  0.144330  1.0  1.4915
  Yb  Yb28  1  0.745370  0.182930  0.355670  1.0  1.4926
  Yb  Yb29  1  0.250460  0.749540  0.249540  1.0  1.4242
  Yb  Yb30  1  0.249540  0.250460  0.749540  1.0  1.4283
  Yb  Yb31  1  0.749540  0.249540  0.250460  1.0  1.4236
  Yb  Yb32  1  0.750460  0.750460  0.750460  1.0  1.4281
  H  H33  1  0.232100  0.272100  0.160000  1.0  0.4335
  H  H34  1  0.900800  0.231100  0.761600  1.0  0.1099
  H  H35  1  0.979100  0.218900  0.775300  1.0  0.1206
  H  H36  1  0.967200  0.288500  0.890400  1.0  0.1103
  H  H37  1  0.890500  0.299000  0.878500  1.0  0.1124
  H  H38  1  0.050800  0.258000  0.780000  1.0  0.0773
  H  H39  1  0.028200  0.244300  0.912200  1.0  0.1075
  H  H40  1  0.154000  0.242800  0.862700  1.0  0.1064
  H  H41  1  0.199900  0.195900  0.995500  1.0  0.113
  H  H42  1  0.170400  0.202500  0.923800  1.0  0.1195
  H  H43  1  0.064100  0.272000  0.971700  1.0  0.132
  H  H44  1  0.090200  0.258200  0.045900  1.0  0.1051
  H  H45  1  0.267900  0.727900  0.660000  1.0  0.4354
  H  H46  1  0.599200  0.768900  0.261600  1.0  0.1099
  H  H47  1  0.520900  0.781100  0.275300  1.0  0.1213
  H  H48  1  0.532800  0.711500  0.390400  1.0  0.1095
  H  H49  1  0.609500  0.701000  0.378500  1.0  0.1127
  H  H50  1  0.449200  0.742000  0.280000  1.0  0.0771
  H  H51  1  0.471800  0.755700  0.412200  1.0  0.1061
  H  H52  1  0.346000  0.757200  0.362700  1.0  0.1075
  H  H53  1  0.300100  0.804100  0.495500  1.0  0.1134
  H  H54  1  0.329600  0.797500  0.423800  1.0  0.1198
  H  H55  1  0.435900  0.728000  0.471700  1.0  0.1318
  H  H56  1  0.409800  0.741800  0.545900  1.0  0.105
  H  H57  1  0.767900  0.772100  0.340000  1.0  0.4349
  H  H58  1  0.099200  0.731100  0.738400  1.0  0.1099
  H  H59  1  0.020900  0.718900  0.724700  1.0  0.1208
  H  H60  1  0.032800  0.788500  0.609600  1.0  0.1094
  H  H61  1  0.109500  0.799000  0.621500  1.0  0.1126
  H  H62  1  0.949200  0.758000  0.720000  1.0  0.0776
  H  H63  1  0.971800  0.744300  0.587800  1.0  0.1063
  H  H64  1  0.846000  0.742800  0.637300  1.0  0.1073
  H  H65  1  0.800100  0.695900  0.504500  1.0  0.113
  H  H66  1  0.829600  0.702500  0.576200  1.0  0.1205
  H  H67  1  0.935900  0.772000  0.528300  1.0  0.1326
  H  H68  1  0.909800  0.758200  0.454100  1.0  0.1051
  H  H69  1  0.732100  0.227900  0.840000  1.0  0.4356
  H  H70  1  0.400800  0.268900  0.238400  1.0  0.1098
  H  H71  1  0.479100  0.281100  0.224700  1.0  0.1208
  H  H72  1  0.467200  0.211500  0.109600  1.0  0.1093
  H  H73  1  0.390500  0.201000  0.121500  1.0  0.1114
  H  H74  1  0.550800  0.242000  0.220000  1.0  0.0774
  H  H75  1  0.528200  0.255700  0.087800  1.0  0.1061
  H  H76  1  0.654000  0.257200  0.137300  1.0  0.1063
  H  H77  1  0.699900  0.304100  0.004500  1.0  0.1133
  H  H78  1  0.670400  0.297500  0.076200  1.0  0.1191
  H  H79  1  0.564100  0.228000  0.028300  1.0  0.1323
  H  H80  1  0.590200  0.241800  0.954100  1.0  0.1048
  H  H81  1  0.160000  0.232100  0.272100  1.0  0.4351
  H  H82  1  0.761600  0.900800  0.231100  1.0  0.1093
  H  H83  1  0.775300  0.979100  0.218900  1.0  0.1206
  H  H84  1  0.890400  0.967200  0.288500  1.0  0.1106
  H  H85  1  0.878500  0.890500  0.299000  1.0  0.1115
  H  H86  1  0.780000  0.050800  0.258000  1.0  0.0774
  H  H87  1  0.912200  0.028200  0.244300  1.0  0.1068
  H  H88  1  0.862700  0.154000  0.242800  1.0  0.1064
  H  H89  1  0.995500  0.199900  0.195900  1.0  0.113
  H  H90  1  0.923800  0.170400  0.202500  1.0  0.1213
  H  H91  1  0.971700  0.064100  0.272000  1.0  0.1299
  H  H92  1  0.045900  0.090200  0.258200  1.0  0.1044
  H  H93  1  0.660000  0.267900  0.727900  1.0  0.4348
  H  H94  1  0.261600  0.599200  0.768900  1.0  0.1101
  H  H95  1  0.275300  0.520900  0.781100  1.0  0.1212
  H  H96  1  0.390400  0.532800  0.711500  1.0  0.1103
  H  H97  1  0.378500  0.609500  0.701000  1.0  0.1126
  H  H98  1  0.280000  0.449200  0.742000  1.0  0.0775
  H  H99  1  0.412200  0.471800  0.755700  1.0  0.1053
  H  H100  1  0.362700  0.346000  0.757200  1.0  0.1068
  H  H101  1  0.495500  0.300100  0.804100  1.0  0.1135
  H  H102  1  0.423800  0.329600  0.797500  1.0  0.1213
  H  H103  1  0.471700  0.435900  0.728000  1.0  0.1307
  H  H104  1  0.545900  0.409800  0.741800  1.0  0.1049
  H  H105  1  0.340000  0.767900  0.772100  1.0  0.4354
  H  H106  1  0.738400  0.099200  0.731100  1.0  0.1101
  H  H107  1  0.724700  0.020900  0.718900  1.0  0.121
  H  H108  1  0.609600  0.032800  0.788500  1.0  0.1099
  H  H109  1  0.621500  0.109500  0.799000  1.0  0.1118
  H  H110  1  0.720000  0.949200  0.758000  1.0  0.0772
  H  H111  1  0.587800  0.971800  0.744300  1.0  0.1065
  H  H112  1  0.637300  0.846000  0.742800  1.0  0.1064
  H  H113  1  0.504500  0.800100  0.695900  1.0  0.1128
  H  H114  1  0.576200  0.829600  0.702500  1.0  0.1213
  H  H115  1  0.528300  0.935900  0.772000  1.0  0.1307
  H  H116  1  0.454100  0.909800  0.758200  1.0  0.1046
  H  H117  1  0.840000  0.732100  0.227900  1.0  0.4343
  H  H118  1  0.238400  0.400800  0.268900  1.0  0.11
  H  H119  1  0.224700  0.479100  0.281100  1.0  0.1203
  H  H120  1  0.109600  0.467200  0.211500  1.0  0.1101
  H  H121  1  0.121500  0.390500  0.201000  1.0  0.112
  H  H122  1  0.220000  0.550800  0.242000  1.0  0.0774
  H  H123  1  0.087800  0.528200  0.255700  1.0  0.1059
  H  H124  1  0.137300  0.654000  0.257200  1.0  0.1064
  H  H125  1  0.004500  0.699900  0.304100  1.0  0.1133
  H  H126  1  0.076200  0.670400  0.297500  1.0  0.1215
  H  H127  1  0.028300  0.564100  0.228000  1.0  0.1294
  H  H128  1  0.954100  0.590200  0.241800  1.0  0.1041
  H  H129  1  0.272100  0.160000  0.232100  1.0  0.4389
  H  H130  1  0.231100  0.761600  0.900800  1.0  0.1089
  H  H131  1  0.218900  0.775300  0.979100  1.0  0.1201
  H  H132  1  0.288500  0.890400  0.967200  1.0  0.1088
  H  H133  1  0.299000  0.878500  0.890500  1.0  0.1116
  H  H134  1  0.258000  0.780000  0.050800  1.0  0.0775
  H  H135  1  0.244300  0.912200  0.028200  1.0  0.1072
  H  H136  1  0.242800  0.862700  0.154000  1.0  0.1083
  H  H137  1  0.195900  0.995500  0.199900  1.0  0.114
  H  H138  1  0.202500  0.923800  0.170400  1.0  0.1203
  H  H139  1  0.272000  0.971700  0.064100  1.0  0.131
  H  H140  1  0.258200  0.045900  0.090200  1.0  0.1039
  H  H141  1  0.727900  0.660000  0.267900  1.0  0.4359
  H  H142  1  0.768900  0.261600  0.599200  1.0  0.109
  H  H143  1  0.781100  0.275300  0.520900  1.0  0.1199
  H  H144  1  0.711500  0.390400  0.532800  1.0  0.1086
  H  H145  1  0.701000  0.378500  0.609500  1.0  0.1111
  H  H146  1  0.742000  0.280000  0.449200  1.0  0.0775
  H  H147  1  0.755700  0.412200  0.471800  1.0  0.1064
  H  H148  1  0.757200  0.362700  0.346000  1.0  0.1084
  H  H149  1  0.804100  0.495500  0.300100  1.0  0.1139
  H  H150  1  0.797500  0.423800  0.329600  1.0  0.1193
  H  H151  1  0.728000  0.471700  0.435900  1.0  0.1322
  H  H152  1  0.741800  0.545900  0.409800  1.0  0.1043
  H  H153  1  0.772100  0.340000  0.767900  1.0  0.4367
  H  H154  1  0.731100  0.738400  0.099200  1.0  0.1092
  H  H155  1  0.718900  0.724700  0.020900  1.0  0.1201
  H  H156  1  0.788500  0.609600  0.032800  1.0  0.1087
  H  H157  1  0.799000  0.621500  0.109500  1.0  0.1112
  H  H158  1  0.758000  0.720000  0.949200  1.0  0.0775
  H  H159  1  0.744300  0.587800  0.971800  1.0  0.1066
  H  H160  1  0.742800  0.637300  0.846000  1.0  0.109
  H  H161  1  0.695900  0.504500  0.800100  1.0  0.1139
  H  H162  1  0.702500  0.576200  0.829600  1.0  0.1202
  H  H163  1  0.772000  0.528300  0.935900  1.0  0.1319
  H  H164  1  0.758200  0.454100  0.909800  1.0  0.1048
  H  H165  1  0.227900  0.840000  0.732100  1.0  0.4372
  H  H166  1  0.268900  0.238400  0.400800  1.0  0.1092
  H  H167  1  0.281100  0.224700  0.479100  1.0  0.1204
  H  H168  1  0.211500  0.109600  0.467200  1.0  0.108
  H  H169  1  0.201000  0.121500  0.390500  1.0  0.111
  H  H170  1  0.242000  0.220000  0.550800  1.0  0.0779
  H  H171  1  0.255700  0.087800  0.528200  1.0  0.1063
  H  H172  1  0.257200  0.137300  0.654000  1.0  0.1078
  H  H173  1  0.304100  0.004500  0.699900  1.0  0.1135
  H  H174  1  0.297500  0.076200  0.670400  1.0  0.119
  H  H175  1  0.228000  0.028300  0.564100  1.0  0.1312
  H  H176  1  0.241800  0.954100  0.590200  1.0  0.1034
  H  H177  1  0.155870  0.155870  0.155870  1.0  0.4942
  H  H178  1  0.344130  0.844130  0.655870  1.0  0.4919
  H  H179  1  0.844130  0.655870  0.344130  1.0  0.4925
  H  H180  1  0.655870  0.344130  0.844130  1.0  0.4939
  H  H181  1  0.767900  0.727900  0.840000  1.0  0.4365
  H  H182  1  0.099200  0.768900  0.238400  1.0  0.1099
  H  H183  1  0.020900  0.781100  0.224700  1.0  0.1209
  H  H184  1  0.032800  0.711500  0.109600  1.0  0.1091
  H  H185  1  0.109500  0.701000  0.121500  1.0  0.1119
  H  H186  1  0.949200  0.742000  0.220000  1.0  0.0772
  H  H187  1  0.971800  0.755700  0.087800  1.0  0.1075
  H  H188  1  0.846000  0.757200  0.137300  1.0  0.1072
  H  H189  1  0.800100  0.804100  0.004500  1.0  0.1135
  H  H190  1  0.829600  0.797500  0.076200  1.0  0.1195
  H  H191  1  0.935900  0.728000  0.028300  1.0  0.1317
  H  H192  1  0.909800  0.741800  0.954100  1.0  0.1048
  H  H193  1  0.732100  0.272100  0.340000  1.0  0.4339
  H  H194  1  0.400800  0.231100  0.738400  1.0  0.1099
  H  H195  1  0.479100  0.218900  0.724700  1.0  0.1211
  H  H196  1  0.467200  0.288500  0.609600  1.0  0.1093
  H  H197  1  0.390500  0.299000  0.621500  1.0  0.1121
  H  H198  1  0.550800  0.258000  0.720000  1.0  0.0777
  H  H199  1  0.528200  0.244300  0.587800  1.0  0.1059
  H  H200  1  0.654000  0.242800  0.637300  1.0  0.1063
  H  H201  1  0.699900  0.195900  0.504500  1.0  0.113
  H  H202  1  0.670400  0.202500  0.576200  1.0  0.1201
  H  H203  1  0.564100  0.272000  0.528300  1.0  0.1326
  H  H204  1  0.590200  0.258200  0.454100  1.0  0.1047
  H  H205  1  0.232100  0.227900  0.660000  1.0  0.4347
  H  H206  1  0.900800  0.268900  0.261600  1.0  0.1098
  H  H207  1  0.979100  0.281100  0.275300  1.0  0.1212
  H  H208  1  0.967200  0.211500  0.390400  1.0  0.1104
  H  H209  1  0.890500  0.201000  0.378500  1.0  0.1128
  H  H210  1  0.050800  0.242000  0.280000  1.0  0.0775
  H  H211  1  0.028200  0.255700  0.412200  1.0  0.1063
  H  H212  1  0.154000  0.257200  0.362700  1.0  0.1066
  H  H213  1  0.199900  0.304100  0.495500  1.0  0.1133
  H  H214  1  0.170400  0.297500  0.423800  1.0  0.1196
  H  H215  1  0.064100  0.228000  0.471700  1.0  0.1322
  H  H216  1  0.090200  0.241800  0.545900  1.0  0.1054
  H  H217  1  0.267900  0.772100  0.160000  1.0  0.4343
  H  H218  1  0.599200  0.731100  0.761600  1.0  0.1101
  H  H219  1  0.520900  0.718900  0.775300  1.0  0.1204
  H  H220  1  0.532800  0.788500  0.890400  1.0  0.1099
  H  H221  1  0.609500  0.799000  0.878500  1.0  0.1125
  H  H222  1  0.449200  0.758000  0.780000  1.0  0.077
  H  H223  1  0.471800  0.744300  0.912200  1.0  0.1064
  H  H224  1  0.346000  0.742800  0.862700  1.0  0.1075
  H  H225  1  0.300100  0.695900  0.995500  1.0  0.113
  H  H226  1  0.329600  0.702500  0.923800  1.0  0.1196
  H  H227  1  0.435900  0.772000  0.971700  1.0  0.1317
  H  H228  1  0.409800  0.758200  0.045900  1.0  0.1051
  H  H229  1  0.840000  0.767900  0.727900  1.0  0.4345
  H  H230  1  0.238400  0.099200  0.768900  1.0  0.1099
  H  H231  1  0.224700  0.020900  0.781100  1.0  0.1206
  H  H232  1  0.109600  0.032800  0.711500  1.0  0.1098
  H  H233  1  0.121500  0.109500  0.701000  1.0  0.1123
  H  H234  1  0.220000  0.949200  0.742000  1.0  0.0773
  H  H235  1  0.087800  0.971800  0.755700  1.0  0.1071
  H  H236  1  0.137300  0.846000  0.757200  1.0  0.1067
  H  H237  1  0.004500  0.800100  0.804100  1.0  0.1133
  H  H238  1  0.076200  0.829600  0.797500  1.0  0.1214
  H  H239  1  0.028300  0.935900  0.728000  1.0  0.1301
  H  H240  1  0.954100  0.909800  0.741800  1.0  0.1046
  H  H241  1  0.340000  0.732100  0.272100  1.0  0.4343
  H  H242  1  0.738400  0.400800  0.231100  1.0  0.1102
  H  H243  1  0.724700  0.479100  0.218900  1.0  0.1209
  H  H244  1  0.609600  0.467200  0.288500  1.0  0.1102
  H  H245  1  0.621500  0.390500  0.299000  1.0  0.1121
  H  H246  1  0.720000  0.550800  0.258000  1.0  0.0774
  H  H247  1  0.587800  0.528200  0.244300  1.0  0.1056
  H  H248  1  0.637300  0.654000  0.242800  1.0  0.1062
  H  H249  1  0.504500  0.699900  0.195900  1.0  0.1131
  H  H250  1  0.576200  0.670400  0.202500  1.0  0.1215
  H  H251  1  0.528300  0.564100  0.272000  1.0  0.1304
  H  H252  1  0.454100  0.590200  0.258200  1.0  0.1043
  H  H253  1  0.660000  0.232100  0.227900  1.0  0.4351
  H  H254  1  0.261600  0.900800  0.268900  1.0  0.1103
  H  H255  1  0.275300  0.979100  0.281100  1.0  0.121
  H  H256  1  0.390400  0.967200  0.211500  1.0  0.1106
  H  H257  1  0.378500  0.890500  0.201000  1.0  0.1118
  H  H258  1  0.280000  0.050800  0.242000  1.0  0.0776
  H  H259  1  0.412200  0.028200  0.255700  1.0  0.1057
  H  H260  1  0.362700  0.154000  0.257200  1.0  0.1066
  H  H261  1  0.495500  0.199900  0.304100  1.0  0.1136
  H  H262  1  0.423800  0.170400  0.297500  1.0  0.1213
  H  H263  1  0.471700  0.064100  0.228000  1.0  0.1302
  H  H264  1  0.545900  0.090200  0.241800  1.0  0.1043
  H  H265  1  0.160000  0.267900  0.772100  1.0  0.4358
  H  H266  1  0.761600  0.599200  0.731100  1.0  0.1094
  H  H267  1  0.775300  0.520900  0.718900  1.0  0.1203
  H  H268  1  0.890400  0.532800  0.788500  1.0  0.1102
  H  H269  1  0.878500  0.609500  0.799000  1.0  0.1115
  H  H270  1  0.780000  0.449200  0.758000  1.0  0.0772
  H  H271  1  0.912200  0.471800  0.744300  1.0  0.106
  H  H272  1  0.862700  0.346000  0.742800  1.0  0.1065
  H  H273  1  0.995500  0.300100  0.695900  1.0  0.1128
  H  H274  1  0.923800  0.329600  0.702500  1.0  0.121
  H  H275  1  0.971700  0.435900  0.772000  1.0  0.1301
  H  H276  1  0.045900  0.409800  0.758200  1.0  0.1048
  H  H277  1  0.727900  0.840000  0.767900  1.0  0.4358
  H  H278  1  0.768900  0.238400  0.099200  1.0  0.1084
  H  H279  1  0.781100  0.224700  0.020900  1.0  0.1205
  H  H280  1  0.711500  0.109600  0.032800  1.0  0.1081
  H  H281  1  0.701000  0.121500  0.109500  1.0  0.1112
  H  H282  1  0.742000  0.220000  0.949200  1.0  0.0775
  H  H283  1  0.755700  0.087800  0.971800  1.0  0.1077
  H  H284  1  0.757200  0.137300  0.846000  1.0  0.1084
  H  H285  1  0.804100  0.004500  0.800100  1.0  0.114
  H  H286  1  0.797500  0.076200  0.829600  1.0  0.1194
  H  H287  1  0.728000  0.028300  0.935900  1.0  0.1318
  H  H288  1  0.741800  0.954100  0.909800  1.0  0.1046
  H  H289  1  0.272100  0.340000  0.732100  1.0  0.4377
  H  H290  1  0.231100  0.738400  0.400800  1.0  0.1093
  H  H291  1  0.218900  0.724700  0.479100  1.0  0.1204
  H  H292  1  0.288500  0.609600  0.467200  1.0  0.1084
  H  H293  1  0.299000  0.621500  0.390500  1.0  0.1112
  H  H294  1  0.258000  0.720000  0.550800  1.0  0.0778
  H  H295  1  0.244300  0.587800  0.528200  1.0  0.1059
  H  H296  1  0.242800  0.637300  0.654000  1.0  0.1084
  H  H297  1  0.195900  0.504500  0.699900  1.0  0.1139
  H  H298  1  0.202500  0.576200  0.670400  1.0  0.12
  H  H299  1  0.272000  0.528300  0.564100  1.0  0.1317
  H  H300  1  0.258200  0.454100  0.590200  1.0  0.1038
  H  H301  1  0.227900  0.660000  0.232100  1.0  0.4379
  H  H302  1  0.268900  0.261600  0.900800  1.0  0.1095
  H  H303  1  0.281100  0.275300  0.979100  1.0  0.1202
  H  H304  1  0.211500  0.390400  0.967200  1.0  0.1083
  H  H305  1  0.201000  0.378500  0.890500  1.0  0.1119
  H  H306  1  0.242000  0.280000  0.050800  1.0  0.0777
  H  H307  1  0.255700  0.412200  0.028200  1.0  0.1064
  H  H308  1  0.257200  0.362700  0.154000  1.0  0.1081
  H  H309  1  0.304100  0.495500  0.199900  1.0  0.1136
  H  H310  1  0.297500  0.423800  0.170400  1.0  0.1192
  H  H311  1  0.228000  0.471700  0.064100  1.0  0.1312
  H  H312  1  0.241800  0.545900  0.090200  1.0  0.1039
  H  H313  1  0.772100  0.160000  0.267900  1.0  0.4373
  H  H314  1  0.731100  0.761600  0.599200  1.0  0.1091
  H  H315  1  0.718900  0.775300  0.520900  1.0  0.1196
  H  H316  1  0.788500  0.890400  0.532800  1.0  0.1091
  H  H317  1  0.799000  0.878500  0.609500  1.0  0.1105
  H  H318  1  0.758000  0.780000  0.449200  1.0  0.0775
  H  H319  1  0.744300  0.912200  0.471800  1.0  0.1063
  H  H320  1  0.742800  0.862700  0.346000  1.0  0.1088
  H  H321  1  0.695900  0.995500  0.300100  1.0  0.114
  H  H322  1  0.702500  0.923800  0.329600  1.0  0.12
  H  H323  1  0.772000  0.971700  0.435900  1.0  0.1313
  H  H324  1  0.758200  0.045900  0.409800  1.0  0.1043
  H  H325  1  0.844130  0.844130  0.844130  1.0  0.4925
  H  H326  1  0.655870  0.155870  0.344130  1.0  0.4942
  H  H327  1  0.155870  0.344130  0.655870  1.0  0.4933
  H  H328  1  0.344130  0.655870  0.155870  1.0  0.4925
  C  C329  1  0.840700  0.262800  0.816200  1.0  0.5837
  C  C330  1  0.887200  0.266400  0.819500  1.0  0.0192
  C  C331  1  0.914100  0.242600  0.788000  1.0  -0.1206
  C  C332  1  0.961800  0.235800  0.795800  1.0  -0.1719
  C  C333  1  0.981400  0.254200  0.833300  1.0  0.0444
  C  C334  1  0.954100  0.276900  0.864000  1.0  -0.1401
  C  C335  1  0.907600  0.283100  0.857000  1.0  -0.1074
  C  C336  1  0.062200  0.252900  0.809200  1.0  0.1906
  C  C337  1  0.030300  0.249400  0.844200  1.0  0.0697
  C  C338  1  0.047800  0.245000  0.887300  1.0  -0.1241
  C  C339  1  0.093900  0.241700  0.894300  1.0  0.0182
  C  C340  1  0.122800  0.244600  0.857500  1.0  0.1699
  C  C341  1  0.166400  0.224300  0.078100  1.0  0.7158
  C  C342  1  0.148700  0.228200  0.029200  1.0  -0.1431
  C  C343  1  0.172000  0.210500  0.991300  1.0  -0.0572
  C  C344  1  0.154400  0.214600  0.948400  1.0  -0.139
  C  C345  1  0.113600  0.236300  0.940800  1.0  0.0181
  C  C346  1  0.090500  0.255100  0.976600  1.0  -0.1946
  C  C347  1  0.107600  0.248500  0.021200  1.0  -0.0277
  C  C348  1  0.659300  0.737200  0.316200  1.0  0.5824
  C  C349  1  0.612800  0.733600  0.319500  1.0  0.0179
  C  C350  1  0.585900  0.757400  0.288000  1.0  -0.1221
  C  C351  1  0.538200  0.764200  0.295800  1.0  -0.1698
  C  C352  1  0.518600  0.745800  0.333333  1.0  0.0436
  C  C353  1  0.545900  0.723100  0.364000  1.0  -0.142
  C  C354  1  0.592400  0.716900  0.357000  1.0  -0.1049
  C  C355  1  0.437800  0.747100  0.309200  1.0  0.1926
  C  C356  1  0.469700  0.750600  0.344200  1.0  0.0712
  C  C357  1  0.452200  0.755000  0.387300  1.0  -0.1238
  C  C358  1  0.406100  0.758300  0.394300  1.0  0.0194
  C  C359  1  0.377200  0.755400  0.357500  1.0  0.1681
  C  C360  1  0.333600  0.775700  0.578100  1.0  0.7169
  C  C361  1  0.351300  0.771800  0.529200  1.0  -0.1439
  C  C362  1  0.328000  0.789500  0.491300  1.0  -0.0559
  C  C363  1  0.345600  0.785400  0.448400  1.0  -0.1397
  C  C364  1  0.386400  0.763700  0.440800  1.0  0.0187
  C  C365  1  0.409500  0.744900  0.476600  1.0  -0.1942
  C  C366  1  0.392400  0.751500  0.521200  1.0  -0.0269
  C  C367  1  0.159300  0.762800  0.683800  1.0  0.5836
  C  C368  1  0.112800  0.766400  0.680500  1.0  0.0188
  C  C369  1  0.085900  0.742600  0.712000  1.0  -0.1224
  C  C370  1  0.038200  0.735800  0.704200  1.0  -0.1709
  C  C371  1  0.018600  0.754200  0.666667  1.0  0.0434
  C  C372  1  0.045900  0.776900  0.636000  1.0  -0.1399
  C  C373  1  0.092400  0.783100  0.643000  1.0  -0.1059
  C  C374  1  0.937800  0.752900  0.690800  1.0  0.1932
  C  C375  1  0.969700  0.749400  0.655800  1.0  0.0695
  C  C376  1  0.952200  0.745000  0.612700  1.0  -0.1241
  C  C377  1  0.906100  0.741700  0.605700  1.0  0.0193
  C  C378  1  0.877200  0.744600  0.642500  1.0  0.1691
  C  C379  1  0.833600  0.724300  0.421900  1.0  0.7156
  C  C380  1  0.851300  0.728200  0.470800  1.0  -0.1437
  C  C381  1  0.828000  0.710500  0.508700  1.0  -0.0544
  C  C382  1  0.845600  0.714600  0.551600  1.0  -0.1386
  C  C383  1  0.886400  0.736300  0.559200  1.0  0.0186
  C  C384  1  0.909500  0.755100  0.523400  1.0  -0.1931
  C  C385  1  0.892400  0.748500  0.478800  1.0  -0.0274
  C  C386  1  0.340700  0.237200  0.183800  1.0  0.5828
  C  C387  1  0.387200  0.233600  0.180500  1.0  0.0198
  C  C388  1  0.414100  0.257400  0.212000  1.0  -0.1236
  C  C389  1  0.461800  0.264200  0.204200  1.0  -0.1714
  C  C390  1  0.481400  0.245800  0.166700  1.0  0.0454
  C  C391  1  0.454100  0.223100  0.136000  1.0  -0.1381
  C  C392  1  0.407600  0.216900  0.143000  1.0  -0.105
  C  C393  1  0.562200  0.247100  0.190800  1.0  0.1909
  C  C394  1  0.530300  0.250600  0.155800  1.0  0.07
  C  C395  1  0.547800  0.255000  0.112700  1.0  -0.1234
  C  C396  1  0.593900  0.258300  0.105700  1.0  0.0189
  C  C397  1  0.622800  0.255400  0.142500  1.0  0.1704
  C  C398  1  0.666400  0.275700  0.921900  1.0  0.7139
  C  C399  1  0.648700  0.271800  0.970800  1.0  -0.142
  C  C400  1  0.672000  0.289500  0.008700  1.0  -0.0558
  C  C401  1  0.654400  0.285400  0.051600  1.0  -0.1379
  C  C402  1  0.613600  0.263700  0.059200  1.0  0.0184
  C  C403  1  0.590500  0.244900  0.023400  1.0  -0.1926
  C  C404  1  0.607600  0.251500  0.978800  1.0  -0.0276
  C  C405  1  0.816200  0.840700  0.262800  1.0  0.5824
  C  C406  1  0.819500  0.887200  0.266400  1.0  0.0204
  C  C407  1  0.788000  0.914100  0.242600  1.0  -0.1162
  C  C408  1  0.795800  0.961800  0.235800  1.0  -0.168
  C  C409  1  0.833300  0.981400  0.254200  1.0  0.0441
  C  C410  1  0.864000  0.954100  0.276900  1.0  -0.1368
  C  C411  1  0.857000  0.907600  0.283100  1.0  -0.1024
  C  C412  1  0.809200  0.062200  0.252900  1.0  0.1905
  C  C413  1  0.844200  0.030300  0.249400  1.0  0.0712
  C  C414  1  0.887300  0.047800  0.245000  1.0  -0.1238
  C  C415  1  0.894300  0.093900  0.241700  1.0  0.0216
  C  C416  1  0.857500  0.122800  0.244600  1.0  0.1688
  C  C417  1  0.078100  0.166400  0.224300  1.0  0.7109
  C  C418  1  0.029200  0.148700  0.228200  1.0  -0.1446
  C  C419  1  0.991300  0.172000  0.210500  1.0  -0.0514
  C  C420  1  0.948400  0.154400  0.214600  1.0  -0.1381
  C  C421  1  0.940800  0.113600  0.236300  1.0  0.0205
  C  C422  1  0.976600  0.090500  0.255100  1.0  -0.1941
  C  C423  1  0.021200  0.107600  0.248500  1.0  -0.0279
  C  C424  1  0.316200  0.659300  0.737200  1.0  0.5807
  C  C425  1  0.319500  0.612800  0.733600  1.0  0.0207
  C  C426  1  0.288000  0.585900  0.757400  1.0  -0.1213
  C  C427  1  0.295800  0.538200  0.764200  1.0  -0.1671
  C  C428  1  0.333333  0.518600  0.745800  1.0  0.0431
  C  C429  1  0.364000  0.545900  0.723100  1.0  -0.1367
  C  C430  1  0.357000  0.592400  0.716900  1.0  -0.1026
  C  C431  1  0.309200  0.437800  0.747100  1.0  0.1923
  C  C432  1  0.344200  0.469700  0.750600  1.0  0.0721
  C  C433  1  0.387300  0.452200  0.755000  1.0  -0.1246
  C  C434  1  0.394300  0.406100  0.758300  1.0  0.0219
  C  C435  1  0.357500  0.377200  0.755400  1.0  0.1709
  C  C436  1  0.578100  0.333600  0.775700  1.0  0.7107
  C  C437  1  0.529200  0.351300  0.771800  1.0  -0.1454
  C  C438  1  0.491300  0.328000  0.789500  1.0  -0.0551
  C  C439  1  0.448400  0.345600  0.785400  1.0  -0.1379
  C  C440  1  0.440800  0.386400  0.763700  1.0  0.0219
  C  C441  1  0.476600  0.409500  0.744900  1.0  -0.1936
  C  C442  1  0.521200  0.392400  0.751500  1.0  -0.0284
  C  C443  1  0.683800  0.159300  0.762800  1.0  0.5823
  C  C444  1  0.680500  0.112800  0.766400  1.0  0.0204
  C  C445  1  0.712000  0.085900  0.742600  1.0  -0.1177
  C  C446  1  0.704200  0.038200  0.735800  1.0  -0.1677
  C  C447  1  0.666667  0.018600  0.754200  1.0  0.0425
  C  C448  1  0.636000  0.045900  0.776900  1.0  -0.138
  C  C449  1  0.643000  0.092400  0.783100  1.0  -0.1057
  C  C450  1  0.690800  0.937800  0.752900  1.0  0.1934
  C  C451  1  0.655800  0.969700  0.749400  1.0  0.0711
  C  C452  1  0.612700  0.952200  0.745000  1.0  -0.1238
  C  C453  1  0.605700  0.906100  0.741700  1.0  0.0199
  C  C454  1  0.642500  0.877200  0.744600  1.0  0.1698
  C  C455  1  0.421900  0.833600  0.724300  1.0  0.711
  C  C456  1  0.470800  0.851300  0.728200  1.0  -0.144
  C  C457  1  0.508700  0.828000  0.710500  1.0  -0.0507
  C  C458  1  0.551600  0.845600  0.714600  1.0  -0.138
  C  C459  1  0.559200  0.886400  0.736300  1.0  0.0215
  C  C460  1  0.523400  0.909500  0.755100  1.0  -0.1948
  C  C461  1  0.478800  0.892400  0.748500  1.0  -0.0283
  C  C462  1  0.183800  0.340700  0.237200  1.0  0.5811
  C  C463  1  0.180500  0.387200  0.233600  1.0  0.0199
  C  C464  1  0.212000  0.414100  0.257400  1.0  -0.1199
  C  C465  1  0.204200  0.461800  0.264200  1.0  -0.1697
  C  C466  1  0.166700  0.481400  0.245800  1.0  0.044
  C  C467  1  0.136000  0.454100  0.223100  1.0  -0.1381
  C  C468  1  0.143000  0.407600  0.216900  1.0  -0.1044
  C  C469  1  0.190800  0.562200  0.247100  1.0  0.1916
  C  C470  1  0.155800  0.530300  0.250600  1.0  0.0704
  C  C471  1  0.112700  0.547800  0.255000  1.0  -0.1248
  C  C472  1  0.105700  0.593900  0.258300  1.0  0.02
  C  C473  1  0.142500  0.622800  0.255400  1.0  0.1681
  C  C474  1  0.921900  0.666400  0.275700  1.0  0.7126
  C  C475  1  0.970800  0.648700  0.271800  1.0  -0.1442
  C  C476  1  0.008700  0.672000  0.289500  1.0  -0.0546
  C  C477  1  0.051600  0.654400  0.285400  1.0  -0.1363
  C  C478  1  0.059200  0.613600  0.263700  1.0  0.0214
  C  C479  1  0.023400  0.590500  0.244900  1.0  -0.1932
  C  C480  1  0.978800  0.607600  0.251500  1.0  -0.0277
  C  C481  1  0.262800  0.816200  0.840700  1.0  0.587
  C  C482  1  0.266400  0.819500  0.887200  1.0  0.0193
  C  C483  1  0.242600  0.788000  0.914100  1.0  -0.1229
  C  C484  1  0.235800  0.795800  0.961800  1.0  -0.1722
  C  C485  1  0.254200  0.833300  0.981400  1.0  0.0431
  C  C486  1  0.276900  0.864000  0.954100  1.0  -0.141
  C  C487  1  0.283100  0.857000  0.907600  1.0  -0.105
  C  C488  1  0.252900  0.809200  0.062200  1.0  0.1895
  C  C489  1  0.249400  0.844200  0.030300  1.0  0.0704
  C  C490  1  0.245000  0.887300  0.047800  1.0  -0.1218
  C  C491  1  0.241700  0.894300  0.093900  1.0  0.0181
  C  C492  1  0.244600  0.857500  0.122800  1.0  0.1696
  C  C493  1  0.224300  0.078100  0.166400  1.0  0.7124
  C  C494  1  0.228200  0.029200  0.148700  1.0  -0.1428
  C  C495  1  0.210500  0.991300  0.172000  1.0  -0.0559
  C  C496  1  0.214600  0.948400  0.154400  1.0  -0.1369
  C  C497  1  0.236300  0.940800  0.113600  1.0  0.0207
  C  C498  1  0.255100  0.976600  0.090500  1.0  -0.1952
  C  C499  1  0.248500  0.021200  0.107600  1.0  -0.0279
  C  C500  1  0.737200  0.316200  0.659300  1.0  0.5839
  C  C501  1  0.733600  0.319500  0.612800  1.0  0.0191
  C  C502  1  0.757400  0.288000  0.585900  1.0  -0.1209
  C  C503  1  0.764200  0.295800  0.538200  1.0  -0.1704
  C  C504  1  0.745800  0.333333  0.518600  1.0  0.041
  C  C505  1  0.723100  0.364000  0.545900  1.0  -0.142
  C  C506  1  0.716900  0.357000  0.592400  1.0  -0.1066
  C  C507  1  0.747100  0.309200  0.437800  1.0  0.1913
  C  C508  1  0.750600  0.344200  0.469700  1.0  0.071
  C  C509  1  0.755000  0.387300  0.452200  1.0  -0.1229
  C  C510  1  0.758300  0.394300  0.406100  1.0  0.0197
  C  C511  1  0.755400  0.357500  0.377200  1.0  0.169
  C  C512  1  0.775700  0.578100  0.333600  1.0  0.7122
  C  C513  1  0.771800  0.529200  0.351300  1.0  -0.1439
  C  C514  1  0.789500  0.491300  0.328000  1.0  -0.0561
  C  C515  1  0.785400  0.448400  0.345600  1.0  -0.1364
  C  C516  1  0.763700  0.440800  0.386400  1.0  0.0213
  C  C517  1  0.744900  0.476600  0.409500  1.0  -0.1954
  C  C518  1  0.751500  0.521200  0.392400  1.0  -0.0273
  C  C519  1  0.762800  0.683800  0.159300  1.0  0.5859
  C  C520  1  0.766400  0.680500  0.112800  1.0  0.0192
  C  C521  1  0.742600  0.712000  0.085900  1.0  -0.1229
  C  C522  1  0.735800  0.704200  0.038200  1.0  -0.1705
  C  C523  1  0.754200  0.666667  0.018600  1.0  0.0415
  C  C524  1  0.776900  0.636000  0.045900  1.0  -0.1423
  C  C525  1  0.783100  0.643000  0.092400  1.0  -0.104
  C  C526  1  0.752900  0.690800  0.937800  1.0  0.1892
  C  C527  1  0.749400  0.655800  0.969700  1.0  0.0697
  C  C528  1  0.745000  0.612700  0.952200  1.0  -0.1228
  C  C529  1  0.741700  0.605700  0.906100  1.0  0.019
  C  C530  1  0.744600  0.642500  0.877200  1.0  0.1688
  C  C531  1  0.724300  0.421900  0.833600  1.0  0.712
  C  C532  1  0.728200  0.470800  0.851300  1.0  -0.1439
  C  C533  1  0.710500  0.508700  0.828000  1.0  -0.0552
  C  C534  1  0.714600  0.551600  0.845600  1.0  -0.137
  C  C535  1  0.736300  0.559200  0.886400  1.0  0.0202
  C  C536  1  0.755100  0.523400  0.909500  1.0  -0.1944
  C  C537  1  0.748500  0.478800  0.892400  1.0  -0.0261
  C  C538  1  0.237200  0.183800  0.340700  1.0  0.5858
  C  C539  1  0.233600  0.180500  0.387200  1.0  0.0186
  C  C540  1  0.257400  0.212000  0.414100  1.0  -0.1209
  C  C541  1  0.264200  0.204200  0.461800  1.0  -0.1711
  C  C542  1  0.245800  0.166700  0.481400  1.0  0.0429
  C  C543  1  0.223100  0.136000  0.454100  1.0  -0.1427
  C  C544  1  0.216900  0.143000  0.407600  1.0  -0.1048
  C  C545  1  0.247100  0.190800  0.562200  1.0  0.1898
  C  C546  1  0.250600  0.155800  0.530300  1.0  0.0706
  C  C547  1  0.255000  0.112700  0.547800  1.0  -0.1226
  C  C548  1  0.258300  0.105700  0.593900  1.0  0.019
  C  C549  1  0.255400  0.142500  0.622800  1.0  0.169
  C  C550  1  0.275700  0.921900  0.666400  1.0  0.7131
  C  C551  1  0.271800  0.970800  0.648700  1.0  -0.1434
  C  C552  1  0.289500  0.008700  0.672000  1.0  -0.0567
  C  C553  1  0.285400  0.051600  0.654400  1.0  -0.136
  C  C554  1  0.263700  0.059200  0.613600  1.0  0.0206
  C  C555  1  0.244900  0.023400  0.590500  1.0  -0.1945
  C  C556  1  0.251500  0.978800  0.607600  1.0  -0.0271
  C  C557  1  0.159300  0.737200  0.183800  1.0  0.5827
  C  C558  1  0.112800  0.733600  0.180500  1.0  0.0186
  C  C559  1  0.085900  0.757400  0.212000  1.0  -0.1219
  C  C560  1  0.038200  0.764200  0.204200  1.0  -0.1713
  C  C561  1  0.018600  0.745800  0.166700  1.0  0.0453
  C  C562  1  0.045900  0.723100  0.136000  1.0  -0.1391
  C  C563  1  0.092400  0.716900  0.143000  1.0  -0.105
  C  C564  1  0.937800  0.747100  0.190800  1.0  0.1921
  C  C565  1  0.969700  0.750600  0.155800  1.0  0.0703
  C  C566  1  0.952200  0.755000  0.112700  1.0  -0.1234
  C  C567  1  0.906100  0.758300  0.105700  1.0  0.0195
  C  C568  1  0.877200  0.755400  0.142500  1.0  0.1687
  C  C569  1  0.833600  0.775700  0.921900  1.0  0.7151
  C  C570  1  0.851300  0.771800  0.970800  1.0  -0.1429
  C  C571  1  0.828000  0.789500  0.008700  1.0  -0.0555
  C  C572  1  0.845600  0.785400  0.051600  1.0  -0.1392
  C  C573  1  0.886400  0.763700  0.059200  1.0  0.0188
  C  C574  1  0.909500  0.744900  0.023400  1.0  -0.1938
  C  C575  1  0.892400  0.751500  0.978800  1.0  -0.0271
  C  C576  1  0.340700  0.262800  0.683800  1.0  0.5839
  C  C577  1  0.387200  0.266400  0.680500  1.0  0.0197
  C  C578  1  0.414100  0.242600  0.712000  1.0  -0.123
  C  C579  1  0.461800  0.235800  0.704200  1.0  -0.1711
  C  C580  1  0.481400  0.254200  0.666667  1.0  0.0434
  C  C581  1  0.454100  0.276900  0.636000  1.0  -0.1392
  C  C582  1  0.407600  0.283100  0.643000  1.0  -0.1059
  C  C583  1  0.562200  0.252900  0.690800  1.0  0.192
  C  C584  1  0.530300  0.249400  0.655800  1.0  0.0688
  C  C585  1  0.547800  0.245000  0.612700  1.0  -0.1242
  C  C586  1  0.593900  0.241700  0.605700  1.0  0.0184
  C  C587  1  0.622800  0.244600  0.642500  1.0  0.1705
  C  C588  1  0.666400  0.224300  0.421900  1.0  0.7143
  C  C589  1  0.648700  0.228200  0.470800  1.0  -0.1421
  C  C590  1  0.672000  0.210500  0.508700  1.0  -0.0563
  C  C591  1  0.654400  0.214600  0.551600  1.0  -0.1385
  C  C592  1  0.613600  0.236300  0.559200  1.0  0.0183
  C  C593  1  0.590500  0.255100  0.523400  1.0  -0.1926
  C  C594  1  0.607600  0.248500  0.478800  1.0  -0.0277
  C  C595  1  0.840700  0.237200  0.316200  1.0  0.5826
  C  C596  1  0.887200  0.233600  0.319500  1.0  0.0192
  C  C597  1  0.914100  0.257400  0.288000  1.0  -0.1224
  C  C598  1  0.961800  0.264200  0.295800  1.0  -0.1695
  C  C599  1  0.981400  0.245800  0.333333  1.0  0.0432
  C  C600  1  0.954100  0.223100  0.364000  1.0  -0.1404
  C  C601  1  0.907600  0.216900  0.357000  1.0  -0.1069
  C  C602  1  0.062200  0.247100  0.309200  1.0  0.1915
  C  C603  1  0.030300  0.250600  0.344200  1.0  0.0711
  C  C604  1  0.047800  0.255000  0.387300  1.0  -0.1242
  C  C605  1  0.093900  0.258300  0.394300  1.0  0.0186
  C  C606  1  0.122800  0.255400  0.357500  1.0  0.1697
  C  C607  1  0.166400  0.275700  0.578100  1.0  0.7153
  C  C608  1  0.148700  0.271800  0.529200  1.0  -0.1432
  C  C609  1  0.172000  0.289500  0.491300  1.0  -0.0564
  C  C610  1  0.154400  0.285400  0.448400  1.0  -0.1384
  C  C611  1  0.113600  0.263700  0.440800  1.0  0.0182
  C  C612  1  0.090500  0.244900  0.476600  1.0  -0.1941
  C  C613  1  0.107600  0.251500  0.521200  1.0  -0.0279
  C  C614  1  0.659300  0.762800  0.816200  1.0  0.5835
  C  C615  1  0.612800  0.766400  0.819500  1.0  0.0183
  C  C616  1  0.585900  0.742600  0.788000  1.0  -0.121
  C  C617  1  0.538200  0.735800  0.795800  1.0  -0.1716
  C  C618  1  0.518600  0.754200  0.833300  1.0  0.0446
  C  C619  1  0.545900  0.776900  0.864000  1.0  -0.1414
  C  C620  1  0.592400  0.783100  0.857000  1.0  -0.1052
  C  C621  1  0.437800  0.752900  0.809200  1.0  0.1916
  C  C622  1  0.469700  0.749400  0.844200  1.0  0.07
  C  C623  1  0.452200  0.745000  0.887300  1.0  -0.1239
  C  C624  1  0.406100  0.741700  0.894300  1.0  0.0194
  C  C625  1  0.377200  0.744600  0.857500  1.0  0.1686
  C  C626  1  0.333600  0.724300  0.078100  1.0  0.7175
  C  C627  1  0.351300  0.728200  0.029200  1.0  -0.144
  C  C628  1  0.328000  0.710500  0.991300  1.0  -0.0549
  C  C629  1  0.345600  0.714600  0.948400  1.0  -0.1394
  C  C630  1  0.386400  0.736300  0.940800  1.0  0.0186
  C  C631  1  0.409500  0.755100  0.976600  1.0  -0.1942
  C  C632  1  0.392400  0.748500  0.021200  1.0  -0.0264
  C  C633  1  0.183800  0.159300  0.737200  1.0  0.5808
  C  C634  1  0.180500  0.112800  0.733600  1.0  0.02
  C  C635  1  0.212000  0.085900  0.757400  1.0  -0.1209
  C  C636  1  0.204200  0.038200  0.764200  1.0  -0.1693
  C  C637  1  0.166700  0.018600  0.745800  1.0  0.0443
  C  C638  1  0.136000  0.045900  0.723100  1.0  -0.1375
  C  C639  1  0.143000  0.092400  0.716900  1.0  -0.105
  C  C640  1  0.190800  0.937800  0.747100  1.0  0.1918
  C  C641  1  0.155800  0.969700  0.750600  1.0  0.0706
  C  C642  1  0.112700  0.952200  0.755000  1.0  -0.1244
  C  C643  1  0.105700  0.906100  0.758300  1.0  0.0205
  C  C644  1  0.142500  0.877200  0.755400  1.0  0.1701
  C  C645  1  0.921900  0.833600  0.775700  1.0  0.7116
  C  C646  1  0.970800  0.851300  0.771800  1.0  -0.1438
  C  C647  1  0.008700  0.828000  0.789500  1.0  -0.055
  C  C648  1  0.051600  0.845600  0.785400  1.0  -0.1364
  C  C649  1  0.059200  0.886400  0.763700  1.0  0.0215
  C  C650  1  0.023400  0.909500  0.744900  1.0  -0.1935
  C  C651  1  0.978800  0.892400  0.751500  1.0  -0.0291
  C  C652  1  0.683800  0.340700  0.262800  1.0  0.5824
  C  C653  1  0.680500  0.387200  0.266400  1.0  0.0204
  C  C654  1  0.712000  0.414100  0.242600  1.0  -0.1172
  C  C655  1  0.704200  0.461800  0.235800  1.0  -0.1679
  C  C656  1  0.666667  0.481400  0.254200  1.0  0.0426
  C  C657  1  0.636000  0.454100  0.276900  1.0  -0.1385
  C  C658  1  0.643000  0.407600  0.283100  1.0  -0.1044
  C  C659  1  0.690800  0.562200  0.252900  1.0  0.1932
  C  C660  1  0.655800  0.530300  0.249400  1.0  0.0706
  C  C661  1  0.612700  0.547800  0.245000  1.0  -0.1241
  C  C662  1  0.605700  0.593900  0.241700  1.0  0.0196
  C  C663  1  0.642500  0.622800  0.244600  1.0  0.1677
  C  C664  1  0.421900  0.666400  0.224300  1.0  0.7118
  C  C665  1  0.470800  0.648700  0.228200  1.0  -0.1442
  C  C666  1  0.508700  0.672000  0.210500  1.0  -0.0506
  C  C667  1  0.551600  0.654400  0.214600  1.0  -0.1379
  C  C668  1  0.559200  0.613600  0.236300  1.0  0.0215
  C  C669  1  0.523400  0.590500  0.255100  1.0  -0.1943
  C  C670  1  0.478800  0.607600  0.248500  1.0  -0.0278
  C  C671  1  0.316200  0.840700  0.237200  1.0  0.5812
  C  C672  1  0.319500  0.887200  0.233600  1.0  0.0205
  C  C673  1  0.288000  0.914100  0.257400  1.0  -0.1203
  C  C674  1  0.295800  0.961800  0.264200  1.0  -0.1675
  C  C675  1  0.333333  0.981400  0.245800  1.0  0.0427
  C  C676  1  0.364000  0.954100  0.223100  1.0  -0.137
  C  C677  1  0.357000  0.907600  0.216900  1.0  -0.1028
  C  C678  1  0.309200  0.062200  0.247100  1.0  0.1916
  C  C679  1  0.344200  0.030300  0.250600  1.0  0.0716
  C  C680  1  0.387300  0.047800  0.255000  1.0  -0.1245
  C  C681  1  0.394300  0.093900  0.258300  1.0  0.0217
  C  C682  1  0.357500  0.122800  0.255400  1.0  0.169
  C  C683  1  0.578100  0.166400  0.275700  1.0  0.7119
  C  C684  1  0.529200  0.148700  0.271800  1.0  -0.1451
  C  C685  1  0.491300  0.172000  0.289500  1.0  -0.0544
  C  C686  1  0.448400  0.154400  0.285400  1.0  -0.1378
  C  C687  1  0.440800  0.113600  0.263700  1.0  0.021
  C  C688  1  0.476600  0.090500  0.244900  1.0  -0.1933
  C  C689  1  0.521200  0.107600  0.251500  1.0  -0.0277
  C  C690  1  0.816200  0.659300  0.762800  1.0  0.5822
  C  C691  1  0.819500  0.612800  0.766400  1.0  0.0205
  C  C692  1  0.788000  0.585900  0.742600  1.0  -0.1174
  C  C693  1  0.795800  0.538200  0.735800  1.0  -0.1678
  C  C694  1  0.833300  0.518600  0.754200  1.0  0.0442
  C  C695  1  0.864000  0.545900  0.776900  1.0  -0.1369
  C  C696  1  0.857000  0.592400  0.783100  1.0  -0.103
  C  C697  1  0.809200  0.437800  0.752900  1.0  0.191
  C  C698  1  0.844200  0.469700  0.749400  1.0  0.0718
  C  C699  1  0.887300  0.452200  0.745000  1.0  -0.1238
  C  C700  1  0.894300  0.406100  0.741700  1.0  0.0216
  C  C701  1  0.857500  0.377200  0.744600  1.0  0.1709
  C  C702  1  0.078100  0.333600  0.724300  1.0  0.7099
  C  C703  1  0.029200  0.351300  0.728200  1.0  -0.1452
  C  C704  1  0.991300  0.328000  0.710500  1.0  -0.0518
  C  C705  1  0.948400  0.345600  0.714600  1.0  -0.1381
  C  C706  1  0.940800  0.386400  0.736300  1.0  0.0211
  C  C707  1  0.976600  0.409500  0.755100  1.0  -0.1949
  C  C708  1  0.021200  0.392400  0.748500  1.0  -0.0277
  C  C709  1  0.737200  0.183800  0.159300  1.0  0.585
  C  C710  1  0.733600  0.180500  0.112800  1.0  0.0192
  C  C711  1  0.757400  0.212000  0.085900  1.0  -0.1204
  C  C712  1  0.764200  0.204200  0.038200  1.0  -0.1715
  C  C713  1  0.745800  0.166700  0.018600  1.0  0.0424
  C  C714  1  0.723100  0.136000  0.045900  1.0  -0.1427
  C  C715  1  0.716900  0.143000  0.092400  1.0  -0.1047
  C  C716  1  0.747100  0.190800  0.937800  1.0  0.1895
  C  C717  1  0.750600  0.155800  0.969700  1.0  0.0699
  C  C718  1  0.755000  0.112700  0.952200  1.0  -0.1228
  C  C719  1  0.758300  0.105700  0.906100  1.0  0.0198
  C  C720  1  0.755400  0.142500  0.877200  1.0  0.1686
  C  C721  1  0.775700  0.921900  0.833600  1.0  0.7127
  C  C722  1  0.771800  0.970800  0.851300  1.0  -0.1437
  C  C723  1  0.789500  0.008700  0.828000  1.0  -0.0573
  C  C724  1  0.785400  0.051600  0.845600  1.0  -0.1359
  C  C725  1  0.763700  0.059200  0.886400  1.0  0.0207
  C  C726  1  0.744900  0.023400  0.909500  1.0  -0.1951
  C  C727  1  0.751500  0.978800  0.892400  1.0  -0.0271
  C  C728  1  0.262800  0.683800  0.340700  1.0  0.5871
  C  C729  1  0.266400  0.680500  0.387200  1.0  0.0189
  C  C730  1  0.242600  0.712000  0.414100  1.0  -0.1233
  C  C731  1  0.235800  0.704200  0.461800  1.0  -0.1711
  C  C732  1  0.254200  0.666667  0.481400  1.0  0.0418
  C  C733  1  0.276900  0.636000  0.454100  1.0  -0.1426
  C  C734  1  0.283100  0.643000  0.407600  1.0  -0.1038
  C  C735  1  0.252900  0.690800  0.562200  1.0  0.1895
  C  C736  1  0.249400  0.655800  0.530300  1.0  0.07
  C  C737  1  0.245000  0.612700  0.547800  1.0  -0.1224
  C  C738  1  0.241700  0.605700  0.593900  1.0  0.0183
  C  C739  1  0.244600  0.642500  0.622800  1.0  0.169
  C  C740  1  0.224300  0.421900  0.666400  1.0  0.7125
  C  C741  1  0.228200  0.470800  0.648700  1.0  -0.1432
  C  C742  1  0.210500  0.508700  0.672000  1.0  -0.0561
  C  C743  1  0.214600  0.551600  0.654400  1.0  -0.1374
  C  C744  1  0.236300  0.559200  0.613600  1.0  0.0204
  C  C745  1  0.255100  0.523400  0.590500  1.0  -0.196
  C  C746  1  0.248500  0.478800  0.607600  1.0  -0.0267
  C  C747  1  0.237200  0.316200  0.840700  1.0  0.5855
  C  C748  1  0.233600  0.319500  0.887200  1.0  0.0187
  C  C749  1  0.257400  0.288000  0.914100  1.0  -0.1212
  C  C750  1  0.264200  0.295800  0.961800  1.0  -0.1697
  C  C751  1  0.245800  0.333333  0.981400  1.0  0.0413
  C  C752  1  0.223100  0.364000  0.954100  1.0  -0.1414
  C  C753  1  0.216900  0.357000  0.907600  1.0  -0.1065
  C  C754  1  0.247100  0.309200  0.062200  1.0  0.1913
  C  C755  1  0.250600  0.344200  0.030300  1.0  0.0717
  C  C756  1  0.255000  0.387300  0.047800  1.0  -0.1227
  C  C757  1  0.258300  0.394300  0.093900  1.0  0.0188
  C  C758  1  0.255400  0.357500  0.122800  1.0  0.1695
  C  C759  1  0.275700  0.578100  0.166400  1.0  0.7131
  C  C760  1  0.271800  0.529200  0.148700  1.0  -0.1441
  C  C761  1  0.289500  0.491300  0.172000  1.0  -0.056
  C  C762  1  0.285400  0.448400  0.154400  1.0  -0.1365
  C  C763  1  0.263700  0.440800  0.113600  1.0  0.0211
  C  C764  1  0.244900  0.476600  0.090500  1.0  -0.1937
  C  C765  1  0.251500  0.521200  0.107600  1.0  -0.0281
  C  C766  1  0.762800  0.816200  0.659300  1.0  0.585
  C  C767  1  0.766400  0.819500  0.612800  1.0  0.0193
  C  C768  1  0.742600  0.788000  0.585900  1.0  -0.1224
  C  C769  1  0.735800  0.795800  0.538200  1.0  -0.1722
  C  C770  1  0.754200  0.833300  0.518600  1.0  0.0429
  C  C771  1  0.776900  0.864000  0.545900  1.0  -0.1417
  C  C772  1  0.783100  0.857000  0.592400  1.0  -0.1051
  C  C773  1  0.752900  0.809200  0.437800  1.0  0.1893
  C  C774  1  0.749400  0.844200  0.469700  1.0  0.07
  C  C775  1  0.745000  0.887300  0.452200  1.0  -0.1224
  C  C776  1  0.741700  0.894300  0.406100  1.0  0.0189
  C  C777  1  0.744600  0.857500  0.377200  1.0  0.1692
  C  C778  1  0.724300  0.078100  0.333600  1.0  0.7115
  C  C779  1  0.728200  0.029200  0.351300  1.0  -0.1433
  C  C780  1  0.710500  0.991300  0.328000  1.0  -0.0546
  C  C781  1  0.714600  0.948400  0.345600  1.0  -0.1367
  C  C782  1  0.736300  0.940800  0.386400  1.0  0.021
  C  C783  1  0.755100  0.976600  0.409500  1.0  -0.1943
  C  C784  1  0.748500  0.021200  0.392400  1.0  -0.0261
  N  N785  1  0.107600  0.249800  0.813200  1.0  -0.386
  N  N786  1  0.392400  0.750200  0.313200  1.0  -0.3849
  N  N787  1  0.892400  0.749800  0.686800  1.0  -0.3851
  N  N788  1  0.607600  0.250200  0.186800  1.0  -0.3856
  N  N789  1  0.813200  0.107600  0.249800  1.0  -0.3845
  N  N790  1  0.313200  0.392400  0.750200  1.0  -0.3855
  N  N791  1  0.686800  0.892400  0.749800  1.0  -0.3855
  N  N792  1  0.186800  0.607600  0.250200  1.0  -0.3847
  N  N793  1  0.249800  0.813200  0.107600  1.0  -0.3868
  N  N794  1  0.750200  0.313200  0.392400  1.0  -0.3867
  N  N795  1  0.749800  0.686800  0.892400  1.0  -0.3865
  N  N796  1  0.250200  0.186800  0.607600  1.0  -0.386
  N  N797  1  0.892400  0.750200  0.186800  1.0  -0.3851
  N  N798  1  0.607600  0.249800  0.686800  1.0  -0.3851
  N  N799  1  0.107600  0.250200  0.313200  1.0  -0.3857
  N  N800  1  0.392400  0.749800  0.813200  1.0  -0.3857
  N  N801  1  0.186800  0.892400  0.750200  1.0  -0.3853
  N  N802  1  0.686800  0.607600  0.249800  1.0  -0.3847
  N  N803  1  0.313200  0.107600  0.250200  1.0  -0.3849
  N  N804  1  0.813200  0.392400  0.749800  1.0  -0.3853
  N  N805  1  0.750200  0.186800  0.892400  1.0  -0.3864
  N  N806  1  0.249800  0.686800  0.607600  1.0  -0.386
  N  N807  1  0.250200  0.313200  0.107600  1.0  -0.3863
  N  N808  1  0.749800  0.813200  0.392400  1.0  -0.3873
  O  O809  1  0.819400  0.250100  0.780200  1.0  -0.6958
  O  O810  1  0.815210  0.292500  0.842600  1.0  -0.6935
  O  O811  1  0.143660  0.243900  0.108050  1.0  -0.6649
  O  O812  1  0.203300  0.203300  0.082110  1.0  -0.6453
  O  O813  1  0.223260  0.249000  0.175260  1.0  -0.9891
  O  O814  1  0.680600  0.749900  0.280200  1.0  -0.6975
  O  O815  1  0.684790  0.707500  0.342600  1.0  -0.6941
  O  O816  1  0.356340  0.756100  0.608050  1.0  -0.6638
  O  O817  1  0.296700  0.796700  0.582110  1.0  -0.6455
  O  O818  1  0.276740  0.751000  0.675260  1.0  -0.9915
  O  O819  1  0.180600  0.750100  0.719800  1.0  -0.6964
  O  O820  1  0.184790  0.792500  0.657400  1.0  -0.6951
  O  O821  1  0.856340  0.743900  0.391950  1.0  -0.6652
  O  O822  1  0.796700  0.703300  0.417890  1.0  -0.6457
  O  O823  1  0.776740  0.749000  0.324740  1.0  -0.9893
  O  O824  1  0.319400  0.249900  0.219800  1.0  -0.6967
  O  O825  1  0.315210  0.207500  0.157400  1.0  -0.6954
  O  O826  1  0.643660  0.256100  0.891950  1.0  -0.6646
  O  O827  1  0.703300  0.296700  0.917890  1.0  -0.6453
  O  O828  1  0.723260  0.251000  0.824740  1.0  -0.9897
  O  O829  1  0.780200  0.819400  0.250100  1.0  -0.6927
  O  O830  1  0.842600  0.815210  0.292500  1.0  -0.6922
  O  O831  1  0.108050  0.143660  0.243900  1.0  -0.661
  O  O832  1  0.082110  0.203300  0.203300  1.0  -0.6506
  O  O833  1  0.175260  0.223260  0.249000  1.0  -0.9884
  O  O834  1  0.280200  0.680600  0.749900  1.0  -0.6919
  O  O835  1  0.342600  0.684790  0.707500  1.0  -0.693
  O  O836  1  0.608050  0.356340  0.756100  1.0  -0.6626
  O  O837  1  0.582110  0.296700  0.796700  1.0  -0.6513
  O  O838  1  0.675260  0.276740  0.751000  1.0  -0.9895
  O  O839  1  0.719800  0.180600  0.750100  1.0  -0.693
  O  O840  1  0.657400  0.184790  0.792500  1.0  -0.6925
  O  O841  1  0.391950  0.856340  0.743900  1.0  -0.661
  O  O842  1  0.417890  0.796700  0.703300  1.0  -0.6495
  O  O843  1  0.324740  0.776740  0.749000  1.0  -0.9881
  O  O844  1  0.219800  0.319400  0.249900  1.0  -0.6931
  O  O845  1  0.157400  0.315210  0.207500  1.0  -0.693
  O  O846  1  0.891950  0.643660  0.256100  1.0  -0.6616
  O  O847  1  0.917890  0.703300  0.296700  1.0  -0.6488
  O  O848  1  0.824740  0.723260  0.251000  1.0  -0.9885
  O  O849  1  0.250100  0.780200  0.819400  1.0  -0.6953
  O  O850  1  0.292500  0.842600  0.815210  1.0  -0.6947
  O  O851  1  0.243900  0.108050  0.143660  1.0  -0.6645
  O  O852  1  0.203300  0.082110  0.203300  1.0  -0.6492
  O  O853  1  0.249000  0.175260  0.223260  1.0  -0.9874
  O  O854  1  0.749900  0.280200  0.680600  1.0  -0.6963
  O  O855  1  0.707500  0.342600  0.684790  1.0  -0.695
  O  O856  1  0.756100  0.608050  0.356340  1.0  -0.6638
  O  O857  1  0.796700  0.582110  0.296700  1.0  -0.6496
  O  O858  1  0.751000  0.675260  0.276740  1.0  -0.9877
  O  O859  1  0.750100  0.719800  0.180600  1.0  -0.6947
  O  O860  1  0.792500  0.657400  0.184790  1.0  -0.6942
  O  O861  1  0.743900  0.391950  0.856340  1.0  -0.6635
  O  O862  1  0.703300  0.417890  0.796700  1.0  -0.6494
  O  O863  1  0.749000  0.324740  0.776740  1.0  -0.9868
  O  O864  1  0.249900  0.219800  0.319400  1.0  -0.6948
  O  O865  1  0.207500  0.157400  0.315210  1.0  -0.6937
  O  O866  1  0.256100  0.891950  0.643660  1.0  -0.6627
  O  O867  1  0.296700  0.917890  0.703300  1.0  -0.6496
  O  O868  1  0.251000  0.824740  0.723260  1.0  -0.9869
  O  O869  1  0.172570  0.172570  0.172570  1.0  -0.9617
  O  O870  1  0.327430  0.827430  0.672570  1.0  -0.9576
  O  O871  1  0.827430  0.672570  0.327430  1.0  -0.9602
  O  O872  1  0.672570  0.327430  0.827430  1.0  -0.9591
  O  O873  1  0.180600  0.749900  0.219800  1.0  -0.6973
  O  O874  1  0.184790  0.707500  0.157400  1.0  -0.6955
  O  O875  1  0.856340  0.756100  0.891950  1.0  -0.6646
  O  O876  1  0.796700  0.796700  0.917890  1.0  -0.6458
  O  O877  1  0.776740  0.751000  0.824740  1.0  -0.9908
  O  O878  1  0.319400  0.250100  0.719800  1.0  -0.6964
  O  O879  1  0.315210  0.292500  0.657400  1.0  -0.6946
  O  O880  1  0.643660  0.243900  0.391950  1.0  -0.665
  O  O881  1  0.703300  0.203300  0.417890  1.0  -0.6456
  O  O882  1  0.723260  0.249000  0.324740  1.0  -0.9881
  O  O883  1  0.819400  0.249900  0.280200  1.0  -0.6966
  O  O884  1  0.815210  0.207500  0.342600  1.0  -0.6936
  O  O885  1  0.143660  0.256100  0.608050  1.0  -0.664
  O  O886  1  0.203300  0.296700  0.582110  1.0  -0.645
  O  O887  1  0.223260  0.251000  0.675260  1.0  -0.9906
  O  O888  1  0.680600  0.750100  0.780200  1.0  -0.6957
  O  O889  1  0.684790  0.792500  0.842600  1.0  -0.6945
  O  O890  1  0.356340  0.743900  0.108050  1.0  -0.6653
  O  O891  1  0.296700  0.703300  0.082110  1.0  -0.6459
  O  O892  1  0.276740  0.749000  0.175260  1.0  -0.99
  O  O893  1  0.219800  0.180600  0.749900  1.0  -0.6929
  O  O894  1  0.157400  0.184790  0.707500  1.0  -0.6932
  O  O895  1  0.891950  0.856340  0.756100  1.0  -0.6618
  O  O896  1  0.917890  0.796700  0.796700  1.0  -0.6494
  O  O897  1  0.824740  0.776740  0.751000  1.0  -0.9891
  O  O898  1  0.719800  0.319400  0.250100  1.0  -0.6933
  O  O899  1  0.657400  0.315210  0.292500  1.0  -0.6928
  O  O900  1  0.391950  0.643660  0.243900  1.0  -0.6611
  O  O901  1  0.417890  0.703300  0.203300  1.0  -0.6493
  O  O902  1  0.324740  0.723260  0.249000  1.0  -0.9875
  O  O903  1  0.280200  0.819400  0.249900  1.0  -0.6929
  O  O904  1  0.342600  0.815210  0.207500  1.0  -0.6921
  O  O905  1  0.608050  0.143660  0.256100  1.0  -0.6617
  O  O906  1  0.582110  0.203300  0.296700  1.0  -0.651
  O  O907  1  0.675260  0.223260  0.251000  1.0  -0.9888
  O  O908  1  0.780200  0.680600  0.750100  1.0  -0.692
  O  O909  1  0.842600  0.684790  0.792500  1.0  -0.6927
  O  O910  1  0.108050  0.356340  0.743900  1.0  -0.6615
  O  O911  1  0.082110  0.296700  0.703300  1.0  -0.651
  O  O912  1  0.175260  0.276740  0.749000  1.0  -0.9892
  O  O913  1  0.749900  0.219800  0.180600  1.0  -0.6943
  O  O914  1  0.707500  0.157400  0.184790  1.0  -0.6942
  O  O915  1  0.756100  0.891950  0.856340  1.0  -0.6633
  O  O916  1  0.796700  0.917890  0.796700  1.0  -0.649
  O  O917  1  0.751000  0.824740  0.776740  1.0  -0.9871
  O  O918  1  0.250100  0.719800  0.319400  1.0  -0.6964
  O  O919  1  0.292500  0.657400  0.315210  1.0  -0.6936
  O  O920  1  0.243900  0.391950  0.643660  1.0  -0.6639
  O  O921  1  0.203300  0.417890  0.703300  1.0  -0.6496
  O  O922  1  0.249000  0.324740  0.723260  1.0  -0.987
  O  O923  1  0.249900  0.280200  0.819400  1.0  -0.6964
  O  O924  1  0.207500  0.342600  0.815210  1.0  -0.6953
  O  O925  1  0.256100  0.608050  0.143660  1.0  -0.6629
  O  O926  1  0.296700  0.582110  0.203300  1.0  -0.6499
  O  O927  1  0.251000  0.675260  0.223260  1.0  -0.9872
  O  O928  1  0.750100  0.780200  0.680600  1.0  -0.6944
  O  O929  1  0.792500  0.842600  0.684790  1.0  -0.6942
  O  O930  1  0.743900  0.108050  0.356340  1.0  -0.6642
  O  O931  1  0.703300  0.082110  0.296700  1.0  -0.6491
  O  O932  1  0.749000  0.175260  0.276740  1.0  -0.9873
  O  O933  1  0.827430  0.827430  0.827430  1.0  -0.9586
  O  O934  1  0.672570  0.172570  0.327430  1.0  -0.9615
  O  O935  1  0.172570  0.327430  0.672570  1.0  -0.9587
  O  O936  1  0.327430  0.672570  0.172570  1.0  -0.9599
